
**** 05/19/25 08:21:55 **** PSpice 24.1.0 (23 January 2025) *** ID# 0 ********

 ** Profile: "SCHEMATIC1-worst"  [ d:\facultate\an 2\semestru 2\cad\proiectul meu_pwm\proiectcad-pspicefiles\schematic1\worst.sim ] 


 ****     CIRCUIT DESCRIPTION


******************************************************************************




** Creating circuit file "worst.cir" 
** WARNING: THIS AUTOMATICALLY GENERATED FILE MAY BE OVERWRITTEN BY SUBSEQUENT SIMULATIONS

*Libraries: 
* Profile Libraries :
* Local Libraries :
* From [PSPICE NETLIST] section of C:\Users\user\AppData\Roaming\SPB_Data\cdssetup\OrCAD_PSpice\24.1.0\PSpice.ini file:
.lib "nom.lib" 

*Analysis directives: 
.TRAN  0 300u 0 10u 
.WCASE TRAN V([OUT]) YMAX VARY BOTH  HI 
.OPTIONS ADVCONV
.PROBE64 V(alias(*)) I(alias(*)) W(alias(*)) D(alias(*)) NOISE(alias(*)) 
.INC "..\SCHEMATIC1.net" 



**** INCLUDING SCHEMATIC1.net ****
* source PROIECTCAD
V_V2         -VCC 0 -15V
R_R3         N65354 N27903 R_R3 16k  
.model        R_R3 RES R=1 DEV=5%
X_P1    N28519 N28363 N34705 SCHEMATIC1_P1 
X_U7         N56026 0 VCC -VCC N27745 LM7171A/NS
D_D1         N27789 N27903 D1N4448 
R_R5         VCC N28363 R_R5 33k  
.model        R_R5 RES R=1 DEV=5%
D_D2         N28115 N27789 D1N4448 
R_R2         N56026 N27745 R_R2 13k  
.model        R_R2 RES R=1 DEV=5%
R_R4         N27745 N28115 R_R4 1.1k  
.model        R_R4 RES R=1 DEV=5%
R_R7         N30840 N56018 R_R7 12k  
.model        R_R7 RES R=1 DEV=5%
V_V1         VCC 0 15V
C_C1         N27789 N27803 C_C1 1n IC=0 
.model        C_C1 CAP C=1 DEV=10%
R_R6         N28519 -VCC R_R6 22k  
.model        R_R6 RES R=1 DEV=5%
R_R1         N27803 N56026 R_R1 11k  
.model        R_R1 RES R=1 DEV=5%
X_P2    N30840 N30576 N28413 SCHEMATIC1_P2 
X_U8         N27803 N34705 VCC -VCC N56018 LM7171A/NS
R_R8         0 N30576 R_R8 2.7k  
.model        R_R8 RES R=1 DEV=5%
X_U5         0 N27789 VCC -VCC N27803 LM7171A/NS
X_U13         N28413 OUT VCC -VCC OUT LM7171A/NS
R_R19         0 OUT R_R19 1k  
.model        R_R19 RES R=1 DEV=5%
R_R20         N27745 N65354  1.5k TC=0,0 
.IC         V(N27789 )=0
.PARAM  setfu=1 seta=1

.subckt SCHEMATIC1_P1 1 2 t  
RT_P1         1 t {(10k*(1-{setfu}))+.001}
RB_P1         t 2 {(10k*{setfu})+.001}
.ends SCHEMATIC1_P1

.subckt SCHEMATIC1_P2 1 2 t  
RT_P2         1 t {(10K*(1-{seta}))+.001}
RB_P2         t 2 {(10K*{seta})+.001}
.ends SCHEMATIC1_P2

**** RESUMING worst.cir ****
.END

**** 05/19/25 08:21:55 **** PSpice 24.1.0 (23 January 2025) *** ID# 0 ********

 ** Profile: "SCHEMATIC1-worst"  [ d:\facultate\an 2\semestru 2\cad\proiectul meu_pwm\proiectcad-pspicefiles\schematic1\worst.sim ] 


 ****     Diode MODEL PARAMETERS


******************************************************************************




               D1N4448         X_U7.DMOD1      X_U7.DMOD2      X_U8.DMOD1      
          IS    2.681000E-09   10.000000E-15   10.000000E-18   10.000000E-15 
           N    1.835                                                        
         ISR    1.566000E-09                                                 
         IKF     .03482                                                      
          BV  100                                                            
         IBV  100.000000E-06                                                 
          RS     .5142                                                       
          TT   11.540000E-09                                                 
         CJO    4.000000E-12                                                 
          VJ     .5                                                          
           M     .3333                                                       


               X_U8.DMOD2      X_U5.DMOD1      X_U5.DMOD2      X_U13.DMOD1     
          IS   10.000000E-18   10.000000E-15   10.000000E-18   10.000000E-15 


               X_U13.DMOD2     
          IS   10.000000E-18 


**** 05/19/25 08:21:55 **** PSpice 24.1.0 (23 January 2025) *** ID# 0 ********

 ** Profile: "SCHEMATIC1-worst"  [ d:\facultate\an 2\semestru 2\cad\proiectul meu_pwm\proiectcad-pspicefiles\schematic1\worst.sim ] 


 ****     BJT MODEL PARAMETERS


******************************************************************************




               X_U7.NPN1       X_U7.PNP1       X_U8.NPN1       X_U8.PNP1       
               NPN             PNP             NPN             PNP             
       LEVEL    1               1               1               1            
          IS    1.000000E-15    1.000000E-15    1.000000E-15    1.000000E-15 
          BF  100             100             100             100            
          NF    1               1               1               1            
          BR    1               1               1               1            
          NR    1               1               1               1            
         ISS    0               0               0               0            
          RE    0               0               0               0            
          RC    0               0               0               0            
         CJE    0               0               0               0            
         VJE     .75             .75             .75             .75         
         CJC    0               0               0               0            
         VJC     .75             .75             .75             .75         
         MJC     .33             .33             .33             .33         
        XCJC    1               1               1               1            
         CJS    0               0               0               0            
         VJS     .75             .75             .75             .75         
          KF    0               0               0               0            
          AF    1               1               1               1            
          CN    2.42            2.2             2.42            2.2          
           D     .87             .52             .87             .52         


               X_U5.NPN1       X_U5.PNP1       X_U13.NPN1      X_U13.PNP1      
               NPN             PNP             NPN             PNP             
       LEVEL    1               1               1               1            
          IS    1.000000E-15    1.000000E-15    1.000000E-15    1.000000E-15 
          BF  100             100             100             100            
          NF    1               1               1               1            
          BR    1               1               1               1            
          NR    1               1               1               1            
         ISS    0               0               0               0            
          RE    0               0               0               0            
          RC    0               0               0               0            
         CJE    0               0               0               0            
         VJE     .75             .75             .75             .75         
         CJC    0               0               0               0            
         VJC     .75             .75             .75             .75         
         MJC     .33             .33             .33             .33         
        XCJC    1               1               1               1            
         CJS    0               0               0               0            
         VJS     .75             .75             .75             .75         
          KF    0               0               0               0            
          AF    1               1               1               1            
          CN    2.42            2.2             2.42            2.2          
           D     .87             .52             .87             .52         


**** 05/19/25 08:21:55 **** PSpice 24.1.0 (23 January 2025) *** ID# 0 ********

 ** Profile: "SCHEMATIC1-worst"  [ d:\facultate\an 2\semestru 2\cad\proiectul meu_pwm\proiectcad-pspicefiles\schematic1\worst.sim ] 


 ****     Resistor MODEL PARAMETERS


******************************************************************************




               R_R3            R_R5            R_R2            R_R4            
           R    1               1               1               1            


               R_R7            R_R6            R_R1            R_R8            
           R    1               1               1               1            


               R_R19           X_U7.MRAX       X_U7.MRIB       X_U7.MRISC      
           R    1               1               1               1            
         TC1                  -70.000000E-06    4.520560E-03   -1.500000E-03 


               X_U8.MRAX       X_U8.MRIB       X_U8.MRISC      X_U5.MRAX       
           R    1               1               1               1            
         TC1  -70.000000E-06    4.520560E-03   -1.500000E-03  -70.000000E-06 


               X_U5.MRIB       X_U5.MRISC      X_U13.MRAX      X_U13.MRIB      
           R    1               1               1               1            
         TC1    4.520560E-03   -1.500000E-03  -70.000000E-06    4.520560E-03 


               X_U13.MRISC     
           R    1            
         TC1   -1.500000E-03 


**** 05/19/25 08:21:55 **** PSpice 24.1.0 (23 January 2025) *** ID# 0 ********

 ** Profile: "SCHEMATIC1-worst"  [ d:\facultate\an 2\semestru 2\cad\proiectul meu_pwm\proiectcad-pspicefiles\schematic1\worst.sim ] 


 ****     Capacitor MODEL PARAMETERS


******************************************************************************




               C_C1            
           C    1            


**** 05/19/25 08:21:55 **** PSpice 24.1.0 (23 January 2025) *** ID# 0 ********

 ** Profile: "SCHEMATIC1-worst"  [ d:\facultate\an 2\semestru 2\cad\proiectul meu_pwm\proiectcad-pspicefiles\schematic1\worst.sim ] 


 ****     INITIAL TRANSIENT SOLUTION       TEMPERATURE =   27.000 DEG C

                      SENSITIVITY NOMINAL

******************************************************************************



 NODE   VOLTAGE     NODE   VOLTAGE     NODE   VOLTAGE     NODE   VOLTAGE


(  OUT)    6.9510  (  VCC)   15.0000  ( -VCC)  -15.0000  (N27745)   13.3210     

(N27789) 306.7E-06 (N27803) 590.6E-06 (N27903)   13.3210 (N28115)     .7310     

(N28363)    -.2527 (N28413)    6.9507 (N28519)   -4.8747 (N30576)    1.4777     

(N30840)    6.9507 (N34705)   -4.8747 (N56018)   13.5560 (N56026)    6.0799     

(N65354)   13.3210 (X_U5.10)    0.0000                   (X_U5.11)    -.0028    

(X_U5.17)    0.0000                   (X_U5.18)    -.0027                       

(X_U5.19)    -.0031                   (X_U5.21)   -1.2500                       

(X_U5.22)   28.7500                   (X_U5.23)   28.7500                       

(X_U5.24)    1.6551                   (X_U5.25)    1.0000                       

(X_U5.26)    1.0000                   (X_U5.27)     .8337                       

(X_U5.28)     .6836                   (X_U5.29)    0.0000                       

(X_U5.31)    4.0000                   (X_U5.32)    3.0000                       

(X_U5.33)    2.0000                   (X_U5.34)    1.0000                       

(X_U5.38)    -.0028                   (X_U5.39)    -.0028                       

(X_U5.40)   15.0000                   (X_U5.41)    -.0028                       

(X_U5.42)   15.0000                   (X_U5.43)    0.0000                       

(X_U5.44)    0.0000                   (X_U5.45)    0.0000                       

(X_U5.50)  -15.0000                   (X_U5.51)   99.3000                       

(X_U5.52)  -95.8520                   (X_U5.57)     .0236                       

(X_U5.58)-632.4E-06                   (X_U5.59)    6.3235                       

(X_U5.71)    6.3222                   (X_U5.72)    5.5267                       

(X_U5.73)    2.7517                   (X_U5.74)   13.6000                       

(X_U5.75)  -13.4000                   (X_U5.76)   15.0000                       

(X_U5.77)  -15.0000                   (X_U5.78)    1.9093                       

(X_U5.79)    1.7679                   (X_U5.81)    1.7679                       

(X_U5.86) 590.6E-06                   (X_U5.91)    0.0000                       

(X_U5.92)    0.0000                   (X_U5.93)     .7832                       

(X_U5.94)    -.0028                   (X_U5.95)  -13.3000                       

(X_U5.96)    -.0028                   (X_U5.97)   13.3000                       

(X_U5.98)    -.0028                   (X_U5.99)    -.0028                       

(X_U7.10)    0.0000                   (X_U7.11)    2.9526                       

(X_U7.17)    0.0000                   (X_U7.18)    -.0018                       

(X_U7.19)    6.0756                   (X_U7.21)   -1.2500                       

(X_U7.22)   28.7500                   (X_U7.23)   28.7500                       

(X_U7.24)    1.6551                   (X_U7.25)    1.0000                       

(X_U7.26)    1.0000                   (X_U7.27)     .8337                       

(X_U7.28)     .6836                   (X_U7.29)    0.0000                       

(X_U7.31)    4.0000                   (X_U7.32)    3.0000                       

(X_U7.33)    2.0000                   (X_U7.34)    1.0000                       

(X_U7.38)    2.9526                   (X_U7.39)    2.9526                       

(X_U7.40)   15.0000                   (X_U7.41)    2.9525                       

(X_U7.42)   15.0000                   (X_U7.43)    0.0000                       

(X_U7.44)    0.0000                   (X_U7.45)    0.0000                       

(X_U7.50)  -15.0000                   (X_U7.51)   99.3000                       

(X_U7.52)  -95.8520                   (X_U7.57)  100.1700                       

(X_U7.58)   -2.6795                   (X_U7.59)   15.9190                       

(X_U7.71)   15.9170                   (X_U7.72)   15.1220                       

(X_U7.73)   14.2620                   (X_U7.74)   13.6000                       

(X_U7.75)  -13.4000                   (X_U7.76)   15.0000                       

(X_U7.77)  -15.0000                   (X_U7.78)   13.4830                       

(X_U7.79)   13.4710                   (X_U7.81)   13.4710                       

(X_U7.86)   13.3210                   (X_U7.91)    0.0000                       

(X_U7.92)    0.0000                   (X_U7.93)     .7194                       

(X_U7.94)    2.9526                   (X_U7.95)  -13.3000                       

(X_U7.96)    2.9526                   (X_U7.97)   13.3000                       

(X_U7.98)    2.9526                   (X_U7.99)    2.9526                       

(X_U8.10)    0.0000                   (X_U8.11)   -2.3723                       

(X_U8.17)    0.0000                   (X_U8.18)   -4.8767                       

(X_U8.19)    -.0034                   (X_U8.21)   -1.2500                       

(X_U8.22)   28.7500                   (X_U8.23)   28.7500                       

(X_U8.24)    1.6551                   (X_U8.25)    1.0000                       

(X_U8.26)    1.0000                   (X_U8.27)     .8337                       

(X_U8.28)     .6836                   (X_U8.29)    0.0000                       

(X_U8.31)    4.0000                   (X_U8.32)    3.0000                       

(X_U8.33)    2.0000                   (X_U8.34)    1.0000                       

(X_U8.38)   -2.3723                   (X_U8.39)   -2.3723                       

(X_U8.40)   15.0000                   (X_U8.41)   -2.3722                       

(X_U8.42)   15.0000                   (X_U8.43)    0.0000                       

(X_U8.44)    0.0000                   (X_U8.45)    0.0000                       

(X_U8.50)  -15.0000                   (X_U8.51)   99.3000                       

(X_U8.52)  -95.8520                   (X_U8.57)  100.1500                       

(X_U8.58)   -2.6792                   (X_U8.59)   15.9190                       

(X_U8.71)   15.9170                   (X_U8.72)   15.1220                       

(X_U8.73)   14.2640                   (X_U8.74)   13.6000                       

(X_U8.75)  -13.4000                   (X_U8.76)   15.0000                       

(X_U8.77)  -15.0000                   (X_U8.78)   13.5630                       

(X_U8.79)   13.5630                   (X_U8.81)   13.5630                       

(X_U8.86)   13.5560                   (X_U8.91)    0.0000                       

(X_U8.92)    0.0000                   (X_U8.93)     .6397                       

(X_U8.94)   -2.3723                   (X_U8.95)  -13.3000                       

(X_U8.96)   -2.3723                   (X_U8.97)   13.3000                       

(X_U8.98)   -2.3723                   (X_U8.99)   -2.3723                       

(X_U13.10)    0.0000                  (X_U13.11)    6.7547                      

(X_U13.17)    0.0000                  (X_U13.18)    6.9479                      

(X_U13.19)    6.9476                  (X_U13.21)   -1.2500                      

(X_U13.22)   28.7500                  (X_U13.23)   28.7500                      

(X_U13.24)    1.6551                  (X_U13.25)    1.0000                      

(X_U13.26)    1.0000                  (X_U13.27)     .8337                      

(X_U13.28)     .6836                  (X_U13.29)    0.0000                      

(X_U13.31)    4.0000                  (X_U13.32)    3.0000                      

(X_U13.33)    2.0000                  (X_U13.34)    1.0000                      

(X_U13.38)    6.7547                  (X_U13.39)    6.7547                      

(X_U13.40)   15.0000                  (X_U13.41)    6.7546                      

(X_U13.42)   15.0000                  (X_U13.43)    0.0000                      

(X_U13.44)    0.0000                  (X_U13.45)    0.0000                      

(X_U13.50)  -15.0000                  (X_U13.51)   99.3000                      

(X_U13.52)  -95.8520                  (X_U13.57)     .0264                      

(X_U13.58)-705.0E-06                  (X_U13.59)    7.0497                      

(X_U13.71)    7.0497                  (X_U13.72)    6.2633                      

(X_U13.73)    7.8362                  (X_U13.74)   13.6000                      

(X_U13.75)  -13.4000                  (X_U13.76)   15.0000                      

(X_U13.77)  -15.0000                  (X_U13.78)    7.0525                      

(X_U13.79)    7.0303                  (X_U13.81)    7.0379                      

(X_U13.86)    6.9510                  (X_U13.91)    0.0000                      

(X_U13.92)    0.0000                  (X_U13.93)     .7053                      

(X_U13.94)    6.7547                  (X_U13.95)  -13.3000                      

(X_U13.96)    6.7547                  (X_U13.97)   13.3000                      

(X_U13.98)    6.7547                  (X_U13.99)    6.7547                      

(X_U5.120)    2.0000                  (X_U5.121)    1.0000                      

(X_U5.122)    1.0009                  (X_U5.710)    6.3222                      

(X_U5.720)    5.6597                  (X_U7.120)    2.0000                      

(X_U7.121)    1.0000                  (X_U7.122)    1.0009                      

(X_U7.710)   15.9170                  (X_U7.720)   15.2550                      

(X_U8.120)    2.0000                  (X_U8.121)    1.0000                      

(X_U8.122)    1.0009                  (X_U8.710)   15.9170                      

(X_U8.720)   15.2550                  (X_U13.120)    2.0000                     

(X_U13.121)    1.0000                 (X_U13.122)    1.0009                     

(X_U13.710)    7.1753                 (X_U13.720)    6.3888                 




    VOLTAGE SOURCE CURRENTS
    NAME         CURRENT

    V_V2         2.649E-02
    V_V1        -1.874E-01
    X_U7.VOFF   -2.710E-11
    X_U7.VSENS1   1.000E-03
    X_U7.VTEMP   3.014E-06
    X_U7.VCMX    2.953E-06
    X_U7.VPSX    0.000E+00
    X_U7.VCXX   -5.905E-12
    X_U7.VOOP    1.191E-02
    X_U7.VOON    2.847E-05
    X_U7.VOX     1.200E-02
    X_U7.VFX1    1.200E-02
    X_U7.VFX2   -7.294E-13
    X_U8.VOFF   -2.710E-11
    X_U8.VSENS1   1.000E-03
    X_U8.VTEMP   3.014E-06
    X_U8.VCMX   -2.372E-06
    X_U8.VPSX    0.000E+00
    X_U8.VCXX    4.745E-12
    X_U8.VOOP    5.733E-04
    X_U8.VOON    2.856E-05
    X_U8.VOX     5.504E-04
    X_U8.VFX1    5.504E-04
    X_U8.VFX2   -6.497E-13
    X_U5.VOFF   -2.710E-11
    X_U5.VSENS1   1.000E-03
    X_U5.VTEMP   3.014E-06
    X_U5.VCMX   -2.781E-09
    X_U5.VPSX    0.000E+00
    X_U5.VCXX    5.562E-15
    X_U5.VOOP    1.400E-01
    X_U5.VOON    1.677E-05
    X_U5.VOX     1.414E-01
    X_U5.VFX1    1.414E-01
    X_U5.VFX2   -7.932E-13
    X_U13.VOFF  -2.710E-11
    X_U13.VSENS1   1.000E-03
    X_U13.VTEMP   3.014E-06
    X_U13.VCMX   6.755E-06
    X_U13.VPSX   0.000E+00
    X_U13.VCXX  -1.351E-11
    X_U13.VOOP   1.446E-02
    X_U13.VOON   7.575E-03
    X_U13.VOX    6.954E-03
    X_U13.VFX1   6.954E-03
    X_U13.VFX2  -7.153E-13

    TOTAL POWER DISSIPATION   3.21E+00  WATTS

 NODE   VOLTAGE     NODE   VOLTAGE     NODE   VOLTAGE     NODE   VOLTAGE


(  OUT)    6.9510  (  VCC)   15.0000  ( -VCC)  -15.0000  (N27745)   13.3210     

(N27789) 306.7E-06 (N27803) 590.6E-06 (N27903)   13.3210 (N28115)     .7310     

(N28363)    -.2527 (N28413)    6.9507 (N28519)   -4.8747 (N30576)    1.4777     

(N30840)    6.9507 (N34705)   -4.8747 (N56018)   13.5560 (N56026)    6.0799     

(N65354)   13.3210 (X_U5.10)    0.0000                   (X_U5.11)    -.0028    

(X_U5.17)    0.0000                   (X_U5.18)    -.0027                       

(X_U5.19)    -.0031                   (X_U5.21)   -1.2500                       

(X_U5.22)   28.7500                   (X_U5.23)   28.7500                       

(X_U5.24)    1.6551                   (X_U5.25)    1.0000                       

(X_U5.26)    1.0000                   (X_U5.27)     .8337                       

(X_U5.28)     .6836                   (X_U5.29)    0.0000                       

(X_U5.31)    4.0000                   (X_U5.32)    3.0000                       

(X_U5.33)    2.0000                   (X_U5.34)    1.0000                       

(X_U5.38)    -.0028                   (X_U5.39)    -.0028                       

(X_U5.40)   15.0000                   (X_U5.41)    -.0028                       

(X_U5.42)   15.0000                   (X_U5.43)    0.0000                       

(X_U5.44)    0.0000                   (X_U5.45)    0.0000                       

(X_U5.50)  -15.0000                   (X_U5.51)   99.3000                       

(X_U5.52)  -95.8520                   (X_U5.57)     .0236                       

(X_U5.58)-632.4E-06                   (X_U5.59)    6.3235                       

(X_U5.71)    6.3222                   (X_U5.72)    5.5267                       

(X_U5.73)    2.7517                   (X_U5.74)   13.6000                       

(X_U5.75)  -13.4000                   (X_U5.76)   15.0000                       

(X_U5.77)  -15.0000                   (X_U5.78)    1.9093                       

(X_U5.79)    1.7679                   (X_U5.81)    1.7679                       

(X_U5.86) 590.6E-06                   (X_U5.91)    0.0000                       

(X_U5.92)    0.0000                   (X_U5.93)     .7832                       

(X_U5.94)    -.0028                   (X_U5.95)  -13.3000                       

(X_U5.96)    -.0028                   (X_U5.97)   13.3000                       

(X_U5.98)    -.0028                   (X_U5.99)    -.0028                       

(X_U7.10)    0.0000                   (X_U7.11)    2.9526                       

(X_U7.17)    0.0000                   (X_U7.18)    -.0018                       

(X_U7.19)    6.0756                   (X_U7.21)   -1.2500                       

(X_U7.22)   28.7500                   (X_U7.23)   28.7500                       

(X_U7.24)    1.6551                   (X_U7.25)    1.0000                       

(X_U7.26)    1.0000                   (X_U7.27)     .8337                       

(X_U7.28)     .6836                   (X_U7.29)    0.0000                       

(X_U7.31)    4.0000                   (X_U7.32)    3.0000                       

(X_U7.33)    2.0000                   (X_U7.34)    1.0000                       

(X_U7.38)    2.9526                   (X_U7.39)    2.9526                       

(X_U7.40)   15.0000                   (X_U7.41)    2.9525                       

(X_U7.42)   15.0000                   (X_U7.43)    0.0000                       

(X_U7.44)    0.0000                   (X_U7.45)    0.0000                       

(X_U7.50)  -15.0000                   (X_U7.51)   99.3000                       

(X_U7.52)  -95.8520                   (X_U7.57)  100.1700                       

(X_U7.58)   -2.6795                   (X_U7.59)   15.9190                       

(X_U7.71)   15.9170                   (X_U7.72)   15.1220                       

(X_U7.73)   14.2620                   (X_U7.74)   13.6000                       

(X_U7.75)  -13.4000                   (X_U7.76)   15.0000                       

(X_U7.77)  -15.0000                   (X_U7.78)   13.4830                       

(X_U7.79)   13.4710                   (X_U7.81)   13.4710                       

(X_U7.86)   13.3210                   (X_U7.91)    0.0000                       

(X_U7.92)    0.0000                   (X_U7.93)     .7194                       

(X_U7.94)    2.9526                   (X_U7.95)  -13.3000                       

(X_U7.96)    2.9526                   (X_U7.97)   13.3000                       

(X_U7.98)    2.9526                   (X_U7.99)    2.9526                       

(X_U8.10)    0.0000                   (X_U8.11)   -2.3723                       

(X_U8.17)    0.0000                   (X_U8.18)   -4.8767                       

(X_U8.19)    -.0034                   (X_U8.21)   -1.2500                       

(X_U8.22)   28.7500                   (X_U8.23)   28.7500                       

(X_U8.24)    1.6551                   (X_U8.25)    1.0000                       

(X_U8.26)    1.0000                   (X_U8.27)     .8337                       

(X_U8.28)     .6836                   (X_U8.29)    0.0000                       

(X_U8.31)    4.0000                   (X_U8.32)    3.0000                       

(X_U8.33)    2.0000                   (X_U8.34)    1.0000                       

(X_U8.38)   -2.3723                   (X_U8.39)   -2.3723                       

(X_U8.40)   15.0000                   (X_U8.41)   -2.3722                       

(X_U8.42)   15.0000                   (X_U8.43)    0.0000                       

(X_U8.44)    0.0000                   (X_U8.45)    0.0000                       

(X_U8.50)  -15.0000                   (X_U8.51)   99.3000                       

(X_U8.52)  -95.8520                   (X_U8.57)  100.1500                       

(X_U8.58)   -2.6792                   (X_U8.59)   15.9190                       

(X_U8.71)   15.9170                   (X_U8.72)   15.1220                       

(X_U8.73)   14.2640                   (X_U8.74)   13.6000                       

(X_U8.75)  -13.4000                   (X_U8.76)   15.0000                       

(X_U8.77)  -15.0000                   (X_U8.78)   13.5630                       

(X_U8.79)   13.5630                   (X_U8.81)   13.5630                       

(X_U8.86)   13.5560                   (X_U8.91)    0.0000                       

(X_U8.92)    0.0000                   (X_U8.93)     .6397                       

(X_U8.94)   -2.3723                   (X_U8.95)  -13.3000                       

(X_U8.96)   -2.3723                   (X_U8.97)   13.3000                       

(X_U8.98)   -2.3723                   (X_U8.99)   -2.3723                       

(X_U13.10)    0.0000                  (X_U13.11)    6.7547                      

(X_U13.17)    0.0000                  (X_U13.18)    6.9479                      

(X_U13.19)    6.9476                  (X_U13.21)   -1.2500                      

(X_U13.22)   28.7500                  (X_U13.23)   28.7500                      

(X_U13.24)    1.6551                  (X_U13.25)    1.0000                      

(X_U13.26)    1.0000                  (X_U13.27)     .8337                      

(X_U13.28)     .6836                  (X_U13.29)    0.0000                      

(X_U13.31)    4.0000                  (X_U13.32)    3.0000                      

(X_U13.33)    2.0000                  (X_U13.34)    1.0000                      

(X_U13.38)    6.7547                  (X_U13.39)    6.7547                      

(X_U13.40)   15.0000                  (X_U13.41)    6.7546                      

(X_U13.42)   15.0000                  (X_U13.43)    0.0000                      

(X_U13.44)    0.0000                  (X_U13.45)    0.0000                      

(X_U13.50)  -15.0000                  (X_U13.51)   99.3000                      

(X_U13.52)  -95.8520                  (X_U13.57)     .0264                      

(X_U13.58)-705.0E-06                  (X_U13.59)    7.0497                      

(X_U13.71)    7.0497                  (X_U13.72)    6.2633                      

(X_U13.73)    7.8362                  (X_U13.74)   13.6000                      

(X_U13.75)  -13.4000                  (X_U13.76)   15.0000                      

(X_U13.77)  -15.0000                  (X_U13.78)    7.0525                      

(X_U13.79)    7.0303                  (X_U13.81)    7.0379                      

(X_U13.86)    6.9510                  (X_U13.91)    0.0000                      

(X_U13.92)    0.0000                  (X_U13.93)     .7053                      

(X_U13.94)    6.7547                  (X_U13.95)  -13.3000                      

(X_U13.96)    6.7547                  (X_U13.97)   13.3000                      

(X_U13.98)    6.7547                  (X_U13.99)    6.7547                      

(X_U5.120)    2.0000                  (X_U5.121)    1.0000                      

(X_U5.122)    1.0009                  (X_U5.710)    6.3222                      

(X_U5.720)    5.6597                  (X_U7.120)    2.0000                      

(X_U7.121)    1.0000                  (X_U7.122)    1.0009                      

(X_U7.710)   15.9170                  (X_U7.720)   15.2550                      

(X_U8.120)    2.0000                  (X_U8.121)    1.0000                      

(X_U8.122)    1.0009                  (X_U8.710)   15.9170                      

(X_U8.720)   15.2550                  (X_U13.120)    2.0000                     

(X_U13.121)    1.0000                 (X_U13.122)    1.0009                     

(X_U13.710)    7.1753                 (X_U13.720)    6.3888                 




    VOLTAGE SOURCE CURRENTS
    NAME         CURRENT

    V_V2         2.649E-02
    V_V1        -1.874E-01
    X_U7.VOFF   -2.710E-11
    X_U7.VSENS1   1.000E-03
    X_U7.VTEMP   3.014E-06
    X_U7.VCMX    2.953E-06
    X_U7.VPSX    0.000E+00
    X_U7.VCXX   -5.905E-12
    X_U7.VOOP    1.191E-02
    X_U7.VOON    2.847E-05
    X_U7.VOX     1.200E-02
    X_U7.VFX1    1.200E-02
    X_U7.VFX2   -7.294E-13
    X_U8.VOFF   -2.710E-11
    X_U8.VSENS1   1.000E-03
    X_U8.VTEMP   3.014E-06
    X_U8.VCMX   -2.372E-06
    X_U8.VPSX    0.000E+00
    X_U8.VCXX    4.745E-12
    X_U8.VOOP    5.733E-04
    X_U8.VOON    2.856E-05
    X_U8.VOX     5.504E-04
    X_U8.VFX1    5.504E-04
    X_U8.VFX2   -6.497E-13
    X_U5.VOFF   -2.710E-11
    X_U5.VSENS1   1.000E-03
    X_U5.VTEMP   3.014E-06
    X_U5.VCMX   -2.781E-09
    X_U5.VPSX    0.000E+00
    X_U5.VCXX    5.562E-15
    X_U5.VOOP    1.400E-01
    X_U5.VOON    1.677E-05
    X_U5.VOX     1.414E-01
    X_U5.VFX1    1.414E-01
    X_U5.VFX2   -7.932E-13
    X_U13.VOFF  -2.710E-11
    X_U13.VSENS1   1.000E-03
    X_U13.VTEMP   3.014E-06
    X_U13.VCMX   6.755E-06
    X_U13.VPSX   0.000E+00
    X_U13.VCXX  -1.351E-11
    X_U13.VOOP   1.446E-02
    X_U13.VOON   7.575E-03
    X_U13.VOX    6.954E-03
    X_U13.VFX1   6.954E-03
    X_U13.VFX2  -7.153E-13

    TOTAL POWER DISSIPATION   3.21E+00  WATTS

 NODE   VOLTAGE     NODE   VOLTAGE     NODE   VOLTAGE     NODE   VOLTAGE


(  OUT)    6.9510  (  VCC)   15.0000  ( -VCC)  -15.0000  (N27745)   13.3210     

(N27789) 306.7E-06 (N27803) 590.6E-06 (N27903)   13.3210 (N28115)     .7310     

(N28363)    -.2527 (N28413)    6.9507 (N28519)   -4.8747 (N30576)    1.4777     

(N30840)    6.9507 (N34705)   -4.8747 (N56018)   13.5560 (N56026)    6.0799     

(N65354)   13.3210 (X_U5.10)    0.0000                   (X_U5.11)    -.0028    

(X_U5.17)    0.0000                   (X_U5.18)    -.0027                       

(X_U5.19)    -.0031                   (X_U5.21)   -1.2500                       

(X_U5.22)   28.7500                   (X_U5.23)   28.7500                       

(X_U5.24)    1.6551                   (X_U5.25)    1.0000                       

(X_U5.26)    1.0000                   (X_U5.27)     .8337                       

(X_U5.28)     .6836                   (X_U5.29)    0.0000                       

(X_U5.31)    4.0000                   (X_U5.32)    3.0000                       

(X_U5.33)    2.0000                   (X_U5.34)    1.0000                       

(X_U5.38)    -.0028                   (X_U5.39)    -.0028                       

(X_U5.40)   15.0000                   (X_U5.41)    -.0028                       

(X_U5.42)   15.0000                   (X_U5.43)    0.0000                       

(X_U5.44)    0.0000                   (X_U5.45)    0.0000                       

(X_U5.50)  -15.0000                   (X_U5.51)   99.3000                       

(X_U5.52)  -95.8520                   (X_U5.57)     .0236                       

(X_U5.58)-632.4E-06                   (X_U5.59)    6.3235                       

(X_U5.71)    6.3222                   (X_U5.72)    5.5267                       

(X_U5.73)    2.7517                   (X_U5.74)   13.6000                       

(X_U5.75)  -13.4000                   (X_U5.76)   15.0000                       

(X_U5.77)  -15.0000                   (X_U5.78)    1.9093                       

(X_U5.79)    1.7679                   (X_U5.81)    1.7679                       

(X_U5.86) 590.6E-06                   (X_U5.91)    0.0000                       

(X_U5.92)    0.0000                   (X_U5.93)     .7832                       

(X_U5.94)    -.0028                   (X_U5.95)  -13.3000                       

(X_U5.96)    -.0028                   (X_U5.97)   13.3000                       

(X_U5.98)    -.0028                   (X_U5.99)    -.0028                       

(X_U7.10)    0.0000                   (X_U7.11)    2.9526                       

(X_U7.17)    0.0000                   (X_U7.18)    -.0018                       

(X_U7.19)    6.0756                   (X_U7.21)   -1.2500                       

(X_U7.22)   28.7500                   (X_U7.23)   28.7500                       

(X_U7.24)    1.6551                   (X_U7.25)    1.0000                       

(X_U7.26)    1.0000                   (X_U7.27)     .8337                       

(X_U7.28)     .6836                   (X_U7.29)    0.0000                       

(X_U7.31)    4.0000                   (X_U7.32)    3.0000                       

(X_U7.33)    2.0000                   (X_U7.34)    1.0000                       

(X_U7.38)    2.9526                   (X_U7.39)    2.9526                       

(X_U7.40)   15.0000                   (X_U7.41)    2.9525                       

(X_U7.42)   15.0000                   (X_U7.43)    0.0000                       

(X_U7.44)    0.0000                   (X_U7.45)    0.0000                       

(X_U7.50)  -15.0000                   (X_U7.51)   99.3000                       

(X_U7.52)  -95.8520                   (X_U7.57)  100.1700                       

(X_U7.58)   -2.6795                   (X_U7.59)   15.9190                       

(X_U7.71)   15.9170                   (X_U7.72)   15.1220                       

(X_U7.73)   14.2620                   (X_U7.74)   13.6000                       

(X_U7.75)  -13.4000                   (X_U7.76)   15.0000                       

(X_U7.77)  -15.0000                   (X_U7.78)   13.4830                       

(X_U7.79)   13.4710                   (X_U7.81)   13.4710                       

(X_U7.86)   13.3210                   (X_U7.91)    0.0000                       

(X_U7.92)    0.0000                   (X_U7.93)     .7194                       

(X_U7.94)    2.9526                   (X_U7.95)  -13.3000                       

(X_U7.96)    2.9526                   (X_U7.97)   13.3000                       

(X_U7.98)    2.9526                   (X_U7.99)    2.9526                       

(X_U8.10)    0.0000                   (X_U8.11)   -2.3723                       

(X_U8.17)    0.0000                   (X_U8.18)   -4.8767                       

(X_U8.19)    -.0034                   (X_U8.21)   -1.2500                       

(X_U8.22)   28.7500                   (X_U8.23)   28.7500                       

(X_U8.24)    1.6551                   (X_U8.25)    1.0000                       

(X_U8.26)    1.0000                   (X_U8.27)     .8337                       

(X_U8.28)     .6836                   (X_U8.29)    0.0000                       

(X_U8.31)    4.0000                   (X_U8.32)    3.0000                       

(X_U8.33)    2.0000                   (X_U8.34)    1.0000                       

(X_U8.38)   -2.3723                   (X_U8.39)   -2.3723                       

(X_U8.40)   15.0000                   (X_U8.41)   -2.3722                       

(X_U8.42)   15.0000                   (X_U8.43)    0.0000                       

(X_U8.44)    0.0000                   (X_U8.45)    0.0000                       

(X_U8.50)  -15.0000                   (X_U8.51)   99.3000                       

(X_U8.52)  -95.8520                   (X_U8.57)  100.1500                       

(X_U8.58)   -2.6792                   (X_U8.59)   15.9190                       

(X_U8.71)   15.9170                   (X_U8.72)   15.1220                       

(X_U8.73)   14.2640                   (X_U8.74)   13.6000                       

(X_U8.75)  -13.4000                   (X_U8.76)   15.0000                       

(X_U8.77)  -15.0000                   (X_U8.78)   13.5630                       

(X_U8.79)   13.5630                   (X_U8.81)   13.5630                       

(X_U8.86)   13.5560                   (X_U8.91)    0.0000                       

(X_U8.92)    0.0000                   (X_U8.93)     .6397                       

(X_U8.94)   -2.3723                   (X_U8.95)  -13.3000                       

(X_U8.96)   -2.3723                   (X_U8.97)   13.3000                       

(X_U8.98)   -2.3723                   (X_U8.99)   -2.3723                       

(X_U13.10)    0.0000                  (X_U13.11)    6.7547                      

(X_U13.17)    0.0000                  (X_U13.18)    6.9479                      

(X_U13.19)    6.9476                  (X_U13.21)   -1.2500                      

(X_U13.22)   28.7500                  (X_U13.23)   28.7500                      

(X_U13.24)    1.6551                  (X_U13.25)    1.0000                      

(X_U13.26)    1.0000                  (X_U13.27)     .8337                      

(X_U13.28)     .6836                  (X_U13.29)    0.0000                      

(X_U13.31)    4.0000                  (X_U13.32)    3.0000                      

(X_U13.33)    2.0000                  (X_U13.34)    1.0000                      

(X_U13.38)    6.7547                  (X_U13.39)    6.7547                      

(X_U13.40)   15.0000                  (X_U13.41)    6.7546                      

(X_U13.42)   15.0000                  (X_U13.43)    0.0000                      

(X_U13.44)    0.0000                  (X_U13.45)    0.0000                      

(X_U13.50)  -15.0000                  (X_U13.51)   99.3000                      

(X_U13.52)  -95.8520                  (X_U13.57)     .0264                      

(X_U13.58)-705.0E-06                  (X_U13.59)    7.0497                      

(X_U13.71)    7.0497                  (X_U13.72)    6.2633                      

(X_U13.73)    7.8362                  (X_U13.74)   13.6000                      

(X_U13.75)  -13.4000                  (X_U13.76)   15.0000                      

(X_U13.77)  -15.0000                  (X_U13.78)    7.0525                      

(X_U13.79)    7.0303                  (X_U13.81)    7.0379                      

(X_U13.86)    6.9510                  (X_U13.91)    0.0000                      

(X_U13.92)    0.0000                  (X_U13.93)     .7053                      

(X_U13.94)    6.7547                  (X_U13.95)  -13.3000                      

(X_U13.96)    6.7547                  (X_U13.97)   13.3000                      

(X_U13.98)    6.7547                  (X_U13.99)    6.7547                      

(X_U5.120)    2.0000                  (X_U5.121)    1.0000                      

(X_U5.122)    1.0009                  (X_U5.710)    6.3222                      

(X_U5.720)    5.6597                  (X_U7.120)    2.0000                      

(X_U7.121)    1.0000                  (X_U7.122)    1.0009                      

(X_U7.710)   15.9170                  (X_U7.720)   15.2550                      

(X_U8.120)    2.0000                  (X_U8.121)    1.0000                      

(X_U8.122)    1.0009                  (X_U8.710)   15.9170                      

(X_U8.720)   15.2550                  (X_U13.120)    2.0000                     

(X_U13.121)    1.0000                 (X_U13.122)    1.0009                     

(X_U13.710)    7.1753                 (X_U13.720)    6.3888                 




    VOLTAGE SOURCE CURRENTS
    NAME         CURRENT

    V_V2         2.649E-02
    V_V1        -1.874E-01
    X_U7.VOFF   -2.710E-11
    X_U7.VSENS1   1.000E-03
    X_U7.VTEMP   3.014E-06
    X_U7.VCMX    2.953E-06
    X_U7.VPSX    0.000E+00
    X_U7.VCXX   -5.905E-12
    X_U7.VOOP    1.191E-02
    X_U7.VOON    2.847E-05
    X_U7.VOX     1.200E-02
    X_U7.VFX1    1.200E-02
    X_U7.VFX2   -7.294E-13
    X_U8.VOFF   -2.710E-11
    X_U8.VSENS1   1.000E-03
    X_U8.VTEMP   3.014E-06
    X_U8.VCMX   -2.372E-06
    X_U8.VPSX    0.000E+00
    X_U8.VCXX    4.745E-12
    X_U8.VOOP    5.733E-04
    X_U8.VOON    2.856E-05
    X_U8.VOX     5.504E-04
    X_U8.VFX1    5.504E-04
    X_U8.VFX2   -6.497E-13
    X_U5.VOFF   -2.710E-11
    X_U5.VSENS1   1.000E-03
    X_U5.VTEMP   3.014E-06
    X_U5.VCMX   -2.781E-09
    X_U5.VPSX    0.000E+00
    X_U5.VCXX    5.562E-15
    X_U5.VOOP    1.400E-01
    X_U5.VOON    1.677E-05
    X_U5.VOX     1.414E-01
    X_U5.VFX1    1.414E-01
    X_U5.VFX2   -7.932E-13
    X_U13.VOFF  -2.710E-11
    X_U13.VSENS1   1.000E-03
    X_U13.VTEMP   3.014E-06
    X_U13.VCMX   6.755E-06
    X_U13.VPSX   0.000E+00
    X_U13.VCXX  -1.351E-11
    X_U13.VOOP   1.446E-02
    X_U13.VOON   7.575E-03
    X_U13.VOX    6.954E-03
    X_U13.VFX1   6.954E-03
    X_U13.VFX2  -7.153E-13

    TOTAL POWER DISSIPATION   3.21E+00  WATTS

 NODE   VOLTAGE     NODE   VOLTAGE     NODE   VOLTAGE     NODE   VOLTAGE


(  OUT)    6.9510  (  VCC)   15.0000  ( -VCC)  -15.0000  (N27745)   13.3210     

(N27789) 306.7E-06 (N27803) 590.6E-06 (N27903)   13.3210 (N28115)     .7310     

(N28363)    -.2602 (N28413)    6.9507 (N28519)   -4.8799 (N30576)    1.4777     

(N30840)    6.9507 (N34705)   -4.8799 (N56018)   13.5560 (N56026)    6.0799     

(N65354)   13.3210 (X_U5.10)    0.0000                   (X_U5.11)    -.0028    

(X_U5.17)    0.0000                   (X_U5.18)    -.0027                       

(X_U5.19)    -.0031                   (X_U5.21)   -1.2500                       

(X_U5.22)   28.7500                   (X_U5.23)   28.7500                       

(X_U5.24)    1.6551                   (X_U5.25)    1.0000                       

(X_U5.26)    1.0000                   (X_U5.27)     .8337                       

(X_U5.28)     .6836                   (X_U5.29)    0.0000                       

(X_U5.31)    4.0000                   (X_U5.32)    3.0000                       

(X_U5.33)    2.0000                   (X_U5.34)    1.0000                       

(X_U5.38)    -.0028                   (X_U5.39)    -.0028                       

(X_U5.40)   15.0000                   (X_U5.41)    -.0028                       

(X_U5.42)   15.0000                   (X_U5.43)    0.0000                       

(X_U5.44)    0.0000                   (X_U5.45)    0.0000                       

(X_U5.50)  -15.0000                   (X_U5.51)   99.3000                       

(X_U5.52)  -95.8520                   (X_U5.57)     .0236                       

(X_U5.58)-632.4E-06                   (X_U5.59)    6.3235                       

(X_U5.71)    6.3222                   (X_U5.72)    5.5267                       

(X_U5.73)    2.7517                   (X_U5.74)   13.6000                       

(X_U5.75)  -13.4000                   (X_U5.76)   15.0000                       

(X_U5.77)  -15.0000                   (X_U5.78)    1.9093                       

(X_U5.79)    1.7679                   (X_U5.81)    1.7679                       

(X_U5.86) 590.6E-06                   (X_U5.91)    0.0000                       

(X_U5.92)    0.0000                   (X_U5.93)     .7832                       

(X_U5.94)    -.0028                   (X_U5.95)  -13.3000                       

(X_U5.96)    -.0028                   (X_U5.97)   13.3000                       

(X_U5.98)    -.0028                   (X_U5.99)    -.0028                       

(X_U7.10)    0.0000                   (X_U7.11)    2.9526                       

(X_U7.17)    0.0000                   (X_U7.18)    -.0018                       

(X_U7.19)    6.0756                   (X_U7.21)   -1.2500                       

(X_U7.22)   28.7500                   (X_U7.23)   28.7500                       

(X_U7.24)    1.6551                   (X_U7.25)    1.0000                       

(X_U7.26)    1.0000                   (X_U7.27)     .8337                       

(X_U7.28)     .6836                   (X_U7.29)    0.0000                       

(X_U7.31)    4.0000                   (X_U7.32)    3.0000                       

(X_U7.33)    2.0000                   (X_U7.34)    1.0000                       

(X_U7.38)    2.9526                   (X_U7.39)    2.9526                       

(X_U7.40)   15.0000                   (X_U7.41)    2.9525                       

(X_U7.42)   15.0000                   (X_U7.43)    0.0000                       

(X_U7.44)    0.0000                   (X_U7.45)    0.0000                       

(X_U7.50)  -15.0000                   (X_U7.51)   99.3000                       

(X_U7.52)  -95.8520                   (X_U7.57)  100.1700                       

(X_U7.58)   -2.6795                   (X_U7.59)   15.9190                       

(X_U7.71)   15.9170                   (X_U7.72)   15.1220                       

(X_U7.73)   14.2620                   (X_U7.74)   13.6000                       

(X_U7.75)  -13.4000                   (X_U7.76)   15.0000                       

(X_U7.77)  -15.0000                   (X_U7.78)   13.4830                       

(X_U7.79)   13.4710                   (X_U7.81)   13.4710                       

(X_U7.86)   13.3210                   (X_U7.91)    0.0000                       

(X_U7.92)    0.0000                   (X_U7.93)     .7194                       

(X_U7.94)    2.9526                   (X_U7.95)  -13.3000                       

(X_U7.96)    2.9526                   (X_U7.97)   13.3000                       

(X_U7.98)    2.9526                   (X_U7.99)    2.9526                       

(X_U8.10)    0.0000                   (X_U8.11)   -2.3748                       

(X_U8.17)    0.0000                   (X_U8.18)   -4.8818                       

(X_U8.19)    -.0034                   (X_U8.21)   -1.2500                       

(X_U8.22)   28.7500                   (X_U8.23)   28.7500                       

(X_U8.24)    1.6551                   (X_U8.25)    1.0000                       

(X_U8.26)    1.0000                   (X_U8.27)     .8337                       

(X_U8.28)     .6836                   (X_U8.29)    0.0000                       

(X_U8.31)    4.0000                   (X_U8.32)    3.0000                       

(X_U8.33)    2.0000                   (X_U8.34)    1.0000                       

(X_U8.38)   -2.3748                   (X_U8.39)   -2.3748                       

(X_U8.40)   15.0000                   (X_U8.41)   -2.3747                       

(X_U8.42)   15.0000                   (X_U8.43)    0.0000                       

(X_U8.44)    0.0000                   (X_U8.45)    0.0000                       

(X_U8.50)  -15.0000                   (X_U8.51)   99.3000                       

(X_U8.52)  -95.8520                   (X_U8.57)  100.1500                       

(X_U8.58)   -2.6792                   (X_U8.59)   15.9190                       

(X_U8.71)   15.9170                   (X_U8.72)   15.1220                       

(X_U8.73)   14.2640                   (X_U8.74)   13.6000                       

(X_U8.75)  -13.4000                   (X_U8.76)   15.0000                       

(X_U8.77)  -15.0000                   (X_U8.78)   13.5630                       

(X_U8.79)   13.5630                   (X_U8.81)   13.5630                       

(X_U8.86)   13.5560                   (X_U8.91)    0.0000                       

(X_U8.92)    0.0000                   (X_U8.93)     .6397                       

(X_U8.94)   -2.3748                   (X_U8.95)  -13.3000                       

(X_U8.96)   -2.3748                   (X_U8.97)   13.3000                       

(X_U8.98)   -2.3748                   (X_U8.99)   -2.3748                       

(X_U13.10)    0.0000                  (X_U13.11)    6.7547                      

(X_U13.17)    0.0000                  (X_U13.18)    6.9479                      

(X_U13.19)    6.9476                  (X_U13.21)   -1.2500                      

(X_U13.22)   28.7500                  (X_U13.23)   28.7500                      

(X_U13.24)    1.6551                  (X_U13.25)    1.0000                      

(X_U13.26)    1.0000                  (X_U13.27)     .8337                      

(X_U13.28)     .6836                  (X_U13.29)    0.0000                      

(X_U13.31)    4.0000                  (X_U13.32)    3.0000                      

(X_U13.33)    2.0000                  (X_U13.34)    1.0000                      

(X_U13.38)    6.7547                  (X_U13.39)    6.7547                      

(X_U13.40)   15.0000                  (X_U13.41)    6.7546                      

(X_U13.42)   15.0000                  (X_U13.43)    0.0000                      

(X_U13.44)    0.0000                  (X_U13.45)    0.0000                      

(X_U13.50)  -15.0000                  (X_U13.51)   99.3000                      

(X_U13.52)  -95.8520                  (X_U13.57)     .0264                      

(X_U13.58)-705.0E-06                  (X_U13.59)    7.0497                      

(X_U13.71)    7.0497                  (X_U13.72)    6.2633                      

(X_U13.73)    7.8362                  (X_U13.74)   13.6000                      

(X_U13.75)  -13.4000                  (X_U13.76)   15.0000                      

(X_U13.77)  -15.0000                  (X_U13.78)    7.0525                      

(X_U13.79)    7.0303                  (X_U13.81)    7.0379                      

(X_U13.86)    6.9510                  (X_U13.91)    0.0000                      

(X_U13.92)    0.0000                  (X_U13.93)     .7053                      

(X_U13.94)    6.7547                  (X_U13.95)  -13.3000                      

(X_U13.96)    6.7547                  (X_U13.97)   13.3000                      

(X_U13.98)    6.7547                  (X_U13.99)    6.7547                      

(X_U5.120)    2.0000                  (X_U5.121)    1.0000                      

(X_U5.122)    1.0009                  (X_U5.710)    6.3222                      

(X_U5.720)    5.6597                  (X_U7.120)    2.0000                      

(X_U7.121)    1.0000                  (X_U7.122)    1.0009                      

(X_U7.710)   15.9170                  (X_U7.720)   15.2550                      

(X_U8.120)    2.0000                  (X_U8.121)    1.0000                      

(X_U8.122)    1.0009                  (X_U8.710)   15.9170                      

(X_U8.720)   15.2550                  (X_U13.120)    2.0000                     

(X_U13.121)    1.0000                 (X_U13.122)    1.0009                     

(X_U13.710)    7.1753                 (X_U13.720)    6.3888                 




    VOLTAGE SOURCE CURRENTS
    NAME         CURRENT

    V_V2         2.648E-02
    V_V1        -1.874E-01
    X_U7.VOFF   -2.710E-11
    X_U7.VSENS1   1.000E-03
    X_U7.VTEMP   3.014E-06
    X_U7.VCMX    2.953E-06
    X_U7.VPSX    0.000E+00
    X_U7.VCXX   -5.905E-12
    X_U7.VOOP    1.191E-02
    X_U7.VOON    2.847E-05
    X_U7.VOX     1.200E-02
    X_U7.VFX1    1.200E-02
    X_U7.VFX2   -7.294E-13
    X_U8.VOFF   -2.710E-11
    X_U8.VSENS1   1.000E-03
    X_U8.VTEMP   3.014E-06
    X_U8.VCMX   -2.375E-06
    X_U8.VPSX    0.000E+00
    X_U8.VCXX    4.750E-12
    X_U8.VOOP    5.733E-04
    X_U8.VOON    2.856E-05
    X_U8.VOX     5.504E-04
    X_U8.VFX1    5.504E-04
    X_U8.VFX2   -6.497E-13
    X_U5.VOFF   -2.710E-11
    X_U5.VSENS1   1.000E-03
    X_U5.VTEMP   3.014E-06
    X_U5.VCMX   -2.781E-09
    X_U5.VPSX    0.000E+00
    X_U5.VCXX    5.562E-15
    X_U5.VOOP    1.400E-01
    X_U5.VOON    1.677E-05
    X_U5.VOX     1.414E-01
    X_U5.VFX1    1.414E-01
    X_U5.VFX2   -7.932E-13
    X_U13.VOFF  -2.710E-11
    X_U13.VSENS1   1.000E-03
    X_U13.VTEMP   3.014E-06
    X_U13.VCMX   6.755E-06
    X_U13.VPSX   0.000E+00
    X_U13.VCXX  -1.351E-11
    X_U13.VOOP   1.446E-02
    X_U13.VOON   7.575E-03
    X_U13.VOX    6.954E-03
    X_U13.VFX1   6.954E-03
    X_U13.VFX2  -7.153E-13

    TOTAL POWER DISSIPATION   3.21E+00  WATTS

 NODE   VOLTAGE     NODE   VOLTAGE     NODE   VOLTAGE     NODE   VOLTAGE


(  OUT)    6.9510  (  VCC)   15.0000  ( -VCC)  -15.0000  (N27745)   13.3210     

(N27789) 306.7E-06 (N27803) 590.6E-06 (N27903)   13.3210 (N28115)     .7310     

(N28363)    -.2527 (N28413)    6.9507 (N28519)   -4.8747 (N30576)    1.4777     

(N30840)    6.9507 (N34705)   -4.8747 (N56018)   13.5560 (N56026)    6.0766     

(N65354)   13.3210 (X_U5.10)    0.0000                   (X_U5.11)    -.0028    

(X_U5.17)    0.0000                   (X_U5.18)    -.0027                       

(X_U5.19)    -.0031                   (X_U5.21)   -1.2500                       

(X_U5.22)   28.7500                   (X_U5.23)   28.7500                       

(X_U5.24)    1.6551                   (X_U5.25)    1.0000                       

(X_U5.26)    1.0000                   (X_U5.27)     .8337                       

(X_U5.28)     .6836                   (X_U5.29)    0.0000                       

(X_U5.31)    4.0000                   (X_U5.32)    3.0000                       

(X_U5.33)    2.0000                   (X_U5.34)    1.0000                       

(X_U5.38)    -.0028                   (X_U5.39)    -.0028                       

(X_U5.40)   15.0000                   (X_U5.41)    -.0028                       

(X_U5.42)   15.0000                   (X_U5.43)    0.0000                       

(X_U5.44)    0.0000                   (X_U5.45)    0.0000                       

(X_U5.50)  -15.0000                   (X_U5.51)   99.3000                       

(X_U5.52)  -95.8520                   (X_U5.57)     .0236                       

(X_U5.58)-632.4E-06                   (X_U5.59)    6.3235                       

(X_U5.71)    6.3222                   (X_U5.72)    5.5267                       

(X_U5.73)    2.7517                   (X_U5.74)   13.6000                       

(X_U5.75)  -13.4000                   (X_U5.76)   15.0000                       

(X_U5.77)  -15.0000                   (X_U5.78)    1.9093                       

(X_U5.79)    1.7679                   (X_U5.81)    1.7679                       

(X_U5.86) 590.6E-06                   (X_U5.91)    0.0000                       

(X_U5.92)    0.0000                   (X_U5.93)     .7832                       

(X_U5.94)    -.0028                   (X_U5.95)  -13.3000                       

(X_U5.96)    -.0028                   (X_U5.97)   13.3000                       

(X_U5.98)    -.0028                   (X_U5.99)    -.0028                       

(X_U7.10)    0.0000                   (X_U7.11)    2.9510                       

(X_U7.17)    0.0000                   (X_U7.18)    -.0018                       

(X_U7.19)    6.0723                   (X_U7.21)   -1.2500                       

(X_U7.22)   28.7500                   (X_U7.23)   28.7500                       

(X_U7.24)    1.6551                   (X_U7.25)    1.0000                       

(X_U7.26)    1.0000                   (X_U7.27)     .8337                       

(X_U7.28)     .6836                   (X_U7.29)    0.0000                       

(X_U7.31)    4.0000                   (X_U7.32)    3.0000                       

(X_U7.33)    2.0000                   (X_U7.34)    1.0000                       

(X_U7.38)    2.9510                   (X_U7.39)    2.9510                       

(X_U7.40)   15.0000                   (X_U7.41)    2.9509                       

(X_U7.42)   15.0000                   (X_U7.43)    0.0000                       

(X_U7.44)    0.0000                   (X_U7.45)    0.0000                       

(X_U7.50)  -15.0000                   (X_U7.51)   99.3000                       

(X_U7.52)  -95.8520                   (X_U7.57)  100.1700                       

(X_U7.58)   -2.6795                   (X_U7.59)   15.9190                       

(X_U7.71)   15.9170                   (X_U7.72)   15.1220                       

(X_U7.73)   14.2620                   (X_U7.74)   13.6000                       

(X_U7.75)  -13.4000                   (X_U7.76)   15.0000                       

(X_U7.77)  -15.0000                   (X_U7.78)   13.4830                       

(X_U7.79)   13.4710                   (X_U7.81)   13.4710                       

(X_U7.86)   13.3210                   (X_U7.91)    0.0000                       

(X_U7.92)    0.0000                   (X_U7.93)     .7194                       

(X_U7.94)    2.9510                   (X_U7.95)  -13.3000                       

(X_U7.96)    2.9510                   (X_U7.97)   13.3000                       

(X_U7.98)    2.9510                   (X_U7.99)    2.9510                       

(X_U8.10)    0.0000                   (X_U8.11)   -2.3723                       

(X_U8.17)    0.0000                   (X_U8.18)   -4.8767                       

(X_U8.19)    -.0034                   (X_U8.21)   -1.2500                       

(X_U8.22)   28.7500                   (X_U8.23)   28.7500                       

(X_U8.24)    1.6551                   (X_U8.25)    1.0000                       

(X_U8.26)    1.0000                   (X_U8.27)     .8337                       

(X_U8.28)     .6836                   (X_U8.29)    0.0000                       

(X_U8.31)    4.0000                   (X_U8.32)    3.0000                       

(X_U8.33)    2.0000                   (X_U8.34)    1.0000                       

(X_U8.38)   -2.3723                   (X_U8.39)   -2.3723                       

(X_U8.40)   15.0000                   (X_U8.41)   -2.3722                       

(X_U8.42)   15.0000                   (X_U8.43)    0.0000                       

(X_U8.44)    0.0000                   (X_U8.45)    0.0000                       

(X_U8.50)  -15.0000                   (X_U8.51)   99.3000                       

(X_U8.52)  -95.8520                   (X_U8.57)  100.1500                       

(X_U8.58)   -2.6792                   (X_U8.59)   15.9190                       

(X_U8.71)   15.9170                   (X_U8.72)   15.1220                       

(X_U8.73)   14.2640                   (X_U8.74)   13.6000                       

(X_U8.75)  -13.4000                   (X_U8.76)   15.0000                       

(X_U8.77)  -15.0000                   (X_U8.78)   13.5630                       

(X_U8.79)   13.5630                   (X_U8.81)   13.5630                       

(X_U8.86)   13.5560                   (X_U8.91)    0.0000                       

(X_U8.92)    0.0000                   (X_U8.93)     .6397                       

(X_U8.94)   -2.3723                   (X_U8.95)  -13.3000                       

(X_U8.96)   -2.3723                   (X_U8.97)   13.3000                       

(X_U8.98)   -2.3723                   (X_U8.99)   -2.3723                       

(X_U13.10)    0.0000                  (X_U13.11)    6.7547                      

(X_U13.17)    0.0000                  (X_U13.18)    6.9479                      

(X_U13.19)    6.9476                  (X_U13.21)   -1.2500                      

(X_U13.22)   28.7500                  (X_U13.23)   28.7500                      

(X_U13.24)    1.6551                  (X_U13.25)    1.0000                      

(X_U13.26)    1.0000                  (X_U13.27)     .8337                      

(X_U13.28)     .6836                  (X_U13.29)    0.0000                      

(X_U13.31)    4.0000                  (X_U13.32)    3.0000                      

(X_U13.33)    2.0000                  (X_U13.34)    1.0000                      

(X_U13.38)    6.7547                  (X_U13.39)    6.7547                      

(X_U13.40)   15.0000                  (X_U13.41)    6.7546                      

(X_U13.42)   15.0000                  (X_U13.43)    0.0000                      

(X_U13.44)    0.0000                  (X_U13.45)    0.0000                      

(X_U13.50)  -15.0000                  (X_U13.51)   99.3000                      

(X_U13.52)  -95.8520                  (X_U13.57)     .0264                      

(X_U13.58)-705.0E-06                  (X_U13.59)    7.0497                      

(X_U13.71)    7.0497                  (X_U13.72)    6.2633                      

(X_U13.73)    7.8362                  (X_U13.74)   13.6000                      

(X_U13.75)  -13.4000                  (X_U13.76)   15.0000                      

(X_U13.77)  -15.0000                  (X_U13.78)    7.0525                      

(X_U13.79)    7.0303                  (X_U13.81)    7.0379                      

(X_U13.86)    6.9510                  (X_U13.91)    0.0000                      

(X_U13.92)    0.0000                  (X_U13.93)     .7053                      

(X_U13.94)    6.7547                  (X_U13.95)  -13.3000                      

(X_U13.96)    6.7547                  (X_U13.97)   13.3000                      

(X_U13.98)    6.7547                  (X_U13.99)    6.7547                      

(X_U5.120)    2.0000                  (X_U5.121)    1.0000                      

(X_U5.122)    1.0009                  (X_U5.710)    6.3222                      

(X_U5.720)    5.6597                  (X_U7.120)    2.0000                      

(X_U7.121)    1.0000                  (X_U7.122)    1.0009                      

(X_U7.710)   15.9170                  (X_U7.720)   15.2550                      

(X_U8.120)    2.0000                  (X_U8.121)    1.0000                      

(X_U8.122)    1.0009                  (X_U8.710)   15.9170                      

(X_U8.720)   15.2550                  (X_U13.120)    2.0000                     

(X_U13.121)    1.0000                 (X_U13.122)    1.0009                     

(X_U13.710)    7.1753                 (X_U13.720)    6.3888                 




    VOLTAGE SOURCE CURRENTS
    NAME         CURRENT

    V_V2         2.649E-02
    V_V1        -1.874E-01
    X_U7.VOFF   -2.710E-11
    X_U7.VSENS1   1.000E-03
    X_U7.VTEMP   3.014E-06
    X_U7.VCMX    2.951E-06
    X_U7.VPSX    0.000E+00
    X_U7.VCXX   -5.902E-12
    X_U7.VOOP    1.191E-02
    X_U7.VOON    2.847E-05
    X_U7.VOX     1.200E-02
    X_U7.VFX1    1.200E-02
    X_U7.VFX2   -7.294E-13
    X_U8.VOFF   -2.710E-11
    X_U8.VSENS1   1.000E-03
    X_U8.VTEMP   3.014E-06
    X_U8.VCMX   -2.372E-06
    X_U8.VPSX    0.000E+00
    X_U8.VCXX    4.745E-12
    X_U8.VOOP    5.733E-04
    X_U8.VOON    2.856E-05
    X_U8.VOX     5.504E-04
    X_U8.VFX1    5.504E-04
    X_U8.VFX2   -6.497E-13
    X_U5.VOFF   -2.710E-11
    X_U5.VSENS1   1.000E-03
    X_U5.VTEMP   3.014E-06
    X_U5.VCMX   -2.781E-09
    X_U5.VPSX    0.000E+00
    X_U5.VCXX    5.562E-15
    X_U5.VOOP    1.400E-01
    X_U5.VOON    1.677E-05
    X_U5.VOX     1.414E-01
    X_U5.VFX1    1.414E-01
    X_U5.VFX2   -7.932E-13
    X_U13.VOFF  -2.710E-11
    X_U13.VSENS1   1.000E-03
    X_U13.VTEMP   3.014E-06
    X_U13.VCMX   6.755E-06
    X_U13.VPSX   0.000E+00
    X_U13.VCXX  -1.351E-11
    X_U13.VOOP   1.446E-02
    X_U13.VOON   7.575E-03
    X_U13.VOX    6.954E-03
    X_U13.VFX1   6.954E-03
    X_U13.VFX2  -7.153E-13

    TOTAL POWER DISSIPATION   3.21E+00  WATTS

 NODE   VOLTAGE     NODE   VOLTAGE     NODE   VOLTAGE     NODE   VOLTAGE


(  OUT)    6.9510  (  VCC)   15.0000  ( -VCC)  -15.0000  (N27745)   13.3210     

(N27789) 306.7E-06 (N27803) 590.6E-06 (N27903)   13.3210 (N28115)     .7310     

(N28363)    -.2527 (N28413)    6.9507 (N28519)   -4.8747 (N30576)    1.4777     

(N30840)    6.9507 (N34705)   -4.8747 (N56018)   13.5560 (N56026)    6.0800     

(N65354)   13.3210 (X_U5.10)    0.0000                   (X_U5.11)    -.0028    

(X_U5.17)    0.0000                   (X_U5.18)    -.0027                       

(X_U5.19)    -.0031                   (X_U5.21)   -1.2500                       

(X_U5.22)   28.7500                   (X_U5.23)   28.7500                       

(X_U5.24)    1.6551                   (X_U5.25)    1.0000                       

(X_U5.26)    1.0000                   (X_U5.27)     .8337                       

(X_U5.28)     .6836                   (X_U5.29)    0.0000                       

(X_U5.31)    4.0000                   (X_U5.32)    3.0000                       

(X_U5.33)    2.0000                   (X_U5.34)    1.0000                       

(X_U5.38)    -.0028                   (X_U5.39)    -.0028                       

(X_U5.40)   15.0000                   (X_U5.41)    -.0028                       

(X_U5.42)   15.0000                   (X_U5.43)    0.0000                       

(X_U5.44)    0.0000                   (X_U5.45)    0.0000                       

(X_U5.50)  -15.0000                   (X_U5.51)   99.3000                       

(X_U5.52)  -95.8520                   (X_U5.57)     .0236                       

(X_U5.58)-632.4E-06                   (X_U5.59)    6.3238                       

(X_U5.71)    6.3224                   (X_U5.72)    5.5269                       

(X_U5.73)    2.7517                   (X_U5.74)   13.6000                       

(X_U5.75)  -13.4000                   (X_U5.76)   15.0000                       

(X_U5.77)  -15.0000                   (X_U5.78)    1.9093                       

(X_U5.79)    1.7679                   (X_U5.81)    1.7679                       

(X_U5.86) 590.6E-06                   (X_U5.91)    0.0000                       

(X_U5.92)    0.0000                   (X_U5.93)     .7832                       

(X_U5.94)    -.0028                   (X_U5.95)  -13.3000                       

(X_U5.96)    -.0028                   (X_U5.97)   13.3000                       

(X_U5.98)    -.0028                   (X_U5.99)    -.0028                       

(X_U7.10)    0.0000                   (X_U7.11)    2.9526                       

(X_U7.17)    0.0000                   (X_U7.18)    -.0018                       

(X_U7.19)    6.0757                   (X_U7.21)   -1.2500                       

(X_U7.22)   28.7500                   (X_U7.23)   28.7500                       

(X_U7.24)    1.6551                   (X_U7.25)    1.0000                       

(X_U7.26)    1.0000                   (X_U7.27)     .8337                       

(X_U7.28)     .6836                   (X_U7.29)    0.0000                       

(X_U7.31)    4.0000                   (X_U7.32)    3.0000                       

(X_U7.33)    2.0000                   (X_U7.34)    1.0000                       

(X_U7.38)    2.9526                   (X_U7.39)    2.9526                       

(X_U7.40)   15.0000                   (X_U7.41)    2.9526                       

(X_U7.42)   15.0000                   (X_U7.43)    0.0000                       

(X_U7.44)    0.0000                   (X_U7.45)    0.0000                       

(X_U7.50)  -15.0000                   (X_U7.51)   99.3000                       

(X_U7.52)  -95.8520                   (X_U7.57)  100.1700                       

(X_U7.58)   -2.6795                   (X_U7.59)   15.9190                       

(X_U7.71)   15.9170                   (X_U7.72)   15.1220                       

(X_U7.73)   14.2620                   (X_U7.74)   13.6000                       

(X_U7.75)  -13.4000                   (X_U7.76)   15.0000                       

(X_U7.77)  -15.0000                   (X_U7.78)   13.4830                       

(X_U7.79)   13.4710                   (X_U7.81)   13.4710                       

(X_U7.86)   13.3210                   (X_U7.91)    0.0000                       

(X_U7.92)    0.0000                   (X_U7.93)     .7194                       

(X_U7.94)    2.9526                   (X_U7.95)  -13.3000                       

(X_U7.96)    2.9526                   (X_U7.97)   13.3000                       

(X_U7.98)    2.9526                   (X_U7.99)    2.9526                       

(X_U8.10)    0.0000                   (X_U8.11)   -2.3723                       

(X_U8.17)    0.0000                   (X_U8.18)   -4.8767                       

(X_U8.19)    -.0034                   (X_U8.21)   -1.2500                       

(X_U8.22)   28.7500                   (X_U8.23)   28.7500                       

(X_U8.24)    1.6551                   (X_U8.25)    1.0000                       

(X_U8.26)    1.0000                   (X_U8.27)     .8337                       

(X_U8.28)     .6836                   (X_U8.29)    0.0000                       

(X_U8.31)    4.0000                   (X_U8.32)    3.0000                       

(X_U8.33)    2.0000                   (X_U8.34)    1.0000                       

(X_U8.38)   -2.3723                   (X_U8.39)   -2.3723                       

(X_U8.40)   15.0000                   (X_U8.41)   -2.3722                       

(X_U8.42)   15.0000                   (X_U8.43)    0.0000                       

(X_U8.44)    0.0000                   (X_U8.45)    0.0000                       

(X_U8.50)  -15.0000                   (X_U8.51)   99.3000                       

(X_U8.52)  -95.8520                   (X_U8.57)  100.1500                       

(X_U8.58)   -2.6792                   (X_U8.59)   15.9190                       

(X_U8.71)   15.9170                   (X_U8.72)   15.1220                       

(X_U8.73)   14.2640                   (X_U8.74)   13.6000                       

(X_U8.75)  -13.4000                   (X_U8.76)   15.0000                       

(X_U8.77)  -15.0000                   (X_U8.78)   13.5630                       

(X_U8.79)   13.5630                   (X_U8.81)   13.5630                       

(X_U8.86)   13.5560                   (X_U8.91)    0.0000                       

(X_U8.92)    0.0000                   (X_U8.93)     .6397                       

(X_U8.94)   -2.3723                   (X_U8.95)  -13.3000                       

(X_U8.96)   -2.3723                   (X_U8.97)   13.3000                       

(X_U8.98)   -2.3723                   (X_U8.99)   -2.3723                       

(X_U13.10)    0.0000                  (X_U13.11)    6.7547                      

(X_U13.17)    0.0000                  (X_U13.18)    6.9479                      

(X_U13.19)    6.9476                  (X_U13.21)   -1.2500                      

(X_U13.22)   28.7500                  (X_U13.23)   28.7500                      

(X_U13.24)    1.6551                  (X_U13.25)    1.0000                      

(X_U13.26)    1.0000                  (X_U13.27)     .8337                      

(X_U13.28)     .6836                  (X_U13.29)    0.0000                      

(X_U13.31)    4.0000                  (X_U13.32)    3.0000                      

(X_U13.33)    2.0000                  (X_U13.34)    1.0000                      

(X_U13.38)    6.7547                  (X_U13.39)    6.7547                      

(X_U13.40)   15.0000                  (X_U13.41)    6.7546                      

(X_U13.42)   15.0000                  (X_U13.43)    0.0000                      

(X_U13.44)    0.0000                  (X_U13.45)    0.0000                      

(X_U13.50)  -15.0000                  (X_U13.51)   99.3000                      

(X_U13.52)  -95.8520                  (X_U13.57)     .0264                      

(X_U13.58)-705.0E-06                  (X_U13.59)    7.0497                      

(X_U13.71)    7.0497                  (X_U13.72)    6.2633                      

(X_U13.73)    7.8362                  (X_U13.74)   13.6000                      

(X_U13.75)  -13.4000                  (X_U13.76)   15.0000                      

(X_U13.77)  -15.0000                  (X_U13.78)    7.0525                      

(X_U13.79)    7.0303                  (X_U13.81)    7.0379                      

(X_U13.86)    6.9510                  (X_U13.91)    0.0000                      

(X_U13.92)    0.0000                  (X_U13.93)     .7053                      

(X_U13.94)    6.7547                  (X_U13.95)  -13.3000                      

(X_U13.96)    6.7547                  (X_U13.97)   13.3000                      

(X_U13.98)    6.7547                  (X_U13.99)    6.7547                      

(X_U5.120)    2.0000                  (X_U5.121)    1.0000                      

(X_U5.122)    1.0009                  (X_U5.710)    6.3224                      

(X_U5.720)    5.6599                  (X_U7.120)    2.0000                      

(X_U7.121)    1.0000                  (X_U7.122)    1.0009                      

(X_U7.710)   15.9170                  (X_U7.720)   15.2550                      

(X_U8.120)    2.0000                  (X_U8.121)    1.0000                      

(X_U8.122)    1.0009                  (X_U8.710)   15.9170                      

(X_U8.720)   15.2550                  (X_U13.120)    2.0000                     

(X_U13.121)    1.0000                 (X_U13.122)    1.0009                     

(X_U13.710)    7.1753                 (X_U13.720)    6.3888                 




    VOLTAGE SOURCE CURRENTS
    NAME         CURRENT

    V_V2         2.649E-02
    V_V1        -1.873E-01
    X_U7.VOFF   -2.710E-11
    X_U7.VSENS1   1.000E-03
    X_U7.VTEMP   3.014E-06
    X_U7.VCMX    2.953E-06
    X_U7.VPSX    0.000E+00
    X_U7.VCXX   -5.905E-12
    X_U7.VOOP    1.190E-02
    X_U7.VOON    2.847E-05
    X_U7.VOX     1.199E-02
    X_U7.VFX1    1.199E-02
    X_U7.VFX2   -7.294E-13
    X_U8.VOFF   -2.710E-11
    X_U8.VSENS1   1.000E-03
    X_U8.VTEMP   3.014E-06
    X_U8.VCMX   -2.372E-06
    X_U8.VPSX    0.000E+00
    X_U8.VCXX    4.745E-12
    X_U8.VOOP    5.733E-04
    X_U8.VOON    2.856E-05
    X_U8.VOX     5.504E-04
    X_U8.VFX1    5.504E-04
    X_U8.VFX2   -6.497E-13
    X_U5.VOFF   -2.710E-11
    X_U5.VSENS1   1.000E-03
    X_U5.VTEMP   3.014E-06
    X_U5.VCMX   -2.781E-09
    X_U5.VPSX    0.000E+00
    X_U5.VCXX    5.562E-15
    X_U5.VOOP    1.400E-01
    X_U5.VOON    1.677E-05
    X_U5.VOX     1.414E-01
    X_U5.VFX1    1.414E-01
    X_U5.VFX2   -7.932E-13
    X_U13.VOFF  -2.710E-11
    X_U13.VSENS1   1.000E-03
    X_U13.VTEMP   3.014E-06
    X_U13.VCMX   6.755E-06
    X_U13.VPSX   0.000E+00
    X_U13.VCXX  -1.351E-11
    X_U13.VOOP   1.446E-02
    X_U13.VOON   7.575E-03
    X_U13.VOX    6.954E-03
    X_U13.VFX1   6.954E-03
    X_U13.VFX2  -7.153E-13

    TOTAL POWER DISSIPATION   3.21E+00  WATTS

 NODE   VOLTAGE     NODE   VOLTAGE     NODE   VOLTAGE     NODE   VOLTAGE


(  OUT)    6.9476  (  VCC)   15.0000  ( -VCC)  -15.0000  (N27745)   13.3210     

(N27789) 306.7E-06 (N27803) 590.6E-06 (N27903)   13.3210 (N28115)     .7310     

(N28363)    -.2527 (N28413)    6.9473 (N28519)   -4.8747 (N30576)    1.4770     

(N30840)    6.9473 (N34705)   -4.8747 (N56018)   13.5560 (N56026)    6.0799     

(N65354)   13.3210 (X_U5.10)    0.0000                   (X_U5.11)    -.0028    

(X_U5.17)    0.0000                   (X_U5.18)    -.0027                       

(X_U5.19)    -.0031                   (X_U5.21)   -1.2500                       

(X_U5.22)   28.7500                   (X_U5.23)   28.7500                       

(X_U5.24)    1.6551                   (X_U5.25)    1.0000                       

(X_U5.26)    1.0000                   (X_U5.27)     .8337                       

(X_U5.28)     .6836                   (X_U5.29)    0.0000                       

(X_U5.31)    4.0000                   (X_U5.32)    3.0000                       

(X_U5.33)    2.0000                   (X_U5.34)    1.0000                       

(X_U5.38)    -.0028                   (X_U5.39)    -.0028                       
[...]

(X_U13.24)    1.6551                  (X_U13.25)    1.0000                      

(X_U13.26)    1.0000                  (X_U13.27)     .8337                      

(X_U13.28)     .6836                  (X_U13.29)    0.0000                      

(X_U13.31)    4.0000                  (X_U13.32)    3.0000                      

(X_U13.33)    2.0000                  (X_U13.34)    1.0000                      

(X_U13.38)    6.7547                  (X_U13.39)    6.7547                      

(X_U13.40)   15.0000                  (X_U13.41)    6.7546                      

(X_U13.42)   15.0000                  (X_U13.43)    0.0000                      

(X_U13.44)    0.0000                  (X_U13.45)    0.0000                      

(X_U13.50)  -15.0000                  (X_U13.51)   99.3000                      

(X_U13.52)  -95.8520                  (X_U13.57)     .0264                      

(X_U13.58)-705.0E-06                  (X_U13.59)    7.0496                      

(X_U13.71)    7.0496                  (X_U13.72)    6.2632                      

(X_U13.73)    7.8361                  (X_U13.74)   13.6000                      

(X_U13.75)  -13.4000                  (X_U13.76)   15.0000                      

(X_U13.77)  -15.0000                  (X_U13.78)    7.0524                      

(X_U13.79)    7.0302                  (X_U13.81)    7.0378                      

(X_U13.86)    6.9510                  (X_U13.91)    0.0000                      

(X_U13.92)    0.0000                  (X_U13.93)     .7052                      

(X_U13.94)    6.7547                  (X_U13.95)  -13.3000                      

(X_U13.96)    6.7547                  (X_U13.97)   13.3000                      

(X_U13.98)    6.7547                  (X_U13.99)    6.7547                      

(X_U5.120)    2.0000                  (X_U5.121)    1.0000                      

(X_U5.122)    1.0009                  (X_U5.710)    6.3222                      

(X_U5.720)    5.6597                  (X_U7.120)    2.0000                      

(X_U7.121)    1.0000                  (X_U7.122)    1.0009                      

(X_U7.710)   15.9170                  (X_U7.720)   15.2550                      

(X_U8.120)    2.0000                  (X_U8.121)    1.0000                      

(X_U8.122)    1.0009                  (X_U8.710)   15.9170                      

(X_U8.720)   15.2550                  (X_U13.120)    2.0000                     

(X_U13.121)    1.0000                 (X_U13.122)    1.0009                     

(X_U13.710)    7.1752                 (X_U13.720)    6.3887                 




    VOLTAGE SOURCE CURRENTS
    NAME         CURRENT

    V_V2         2.649E-02
    V_V1        -1.873E-01
    X_U7.VOFF   -2.710E-11
    X_U7.VSENS1   1.000E-03
    X_U7.VTEMP   3.014E-06
    X_U7.VCMX    2.953E-06
    X_U7.VPSX    0.000E+00
    X_U7.VCXX   -5.905E-12
    X_U7.VOOP    1.191E-02
    X_U7.VOON    2.847E-05
    X_U7.VOX     1.200E-02
    X_U7.VFX1    1.200E-02
    X_U7.VFX2   -7.294E-13
    X_U8.VOFF   -2.710E-11
    X_U8.VSENS1   1.000E-03
    X_U8.VTEMP   3.014E-06
    X_U8.VCMX   -2.372E-06
    X_U8.VPSX    0.000E+00
    X_U8.VCXX    4.745E-12
    X_U8.VOOP    5.733E-04
    X_U8.VOON    2.856E-05
    X_U8.VOX     5.504E-04
    X_U8.VFX1    5.504E-04
    X_U8.VFX2   -6.497E-13
    X_U5.VOFF   -2.710E-11
    X_U5.VSENS1   1.000E-03
    X_U5.VTEMP   3.014E-06
    X_U5.VCMX   -2.781E-09
    X_U5.VPSX    0.000E+00
    X_U5.VCXX    5.562E-15
    X_U5.VOOP    1.400E-01
    X_U5.VOON    1.677E-05
    X_U5.VOX     1.414E-01
    X_U5.VFX1    1.414E-01
    X_U5.VFX2   -7.932E-13
    X_U13.VOFF  -2.710E-11
    X_U13.VSENS1   1.000E-03
    X_U13.VTEMP   3.014E-06
    X_U13.VCMX   6.755E-06
    X_U13.VPSX   0.000E+00
    X_U13.VCXX  -1.351E-11
    X_U13.VOOP   1.446E-02
    X_U13.VOON   7.578E-03
    X_U13.VOX    6.947E-03
    X_U13.VFX1   6.947E-03
    X_U13.VFX2  -7.152E-13

    TOTAL POWER DISSIPATION   3.21E+00  WATTS



Mean Deviation =    2.7663
Sigma          =   13.555

 RUN                    MAX DEVIATION FROM NOMINAL

R_R2 R_R2 R             13.836  (1.02 sigma)  lower  at T =  167.0100E-06
                        (  -1.9905E+03% change per 1% change in Model Parameter)

C_C1 C_C1 C             13.836  (1.02 sigma)  lower  at T =  243.6100E-06
                        (  -1.9904E+03% change per 1% change in Model Parameter)

R_R5 R_R5 R             13.835  (1.02 sigma)  lower  at T =  233.5900E-06
                        (  -1.9904E+03% change per 1% change in Model Parameter)

R_R1 R_R1 R             13.835  (1.02 sigma)  higher  at T =   67.3310E-06
                        (  -2.0097E+03% change per 1% change in Model Parameter)

R_R19 R_R19 R           13.835  (1.02 sigma)  lower  at T =  167.0400E-06
                        (  -1.9904E+03% change per 1% change in Model Parameter)

R_R3 R_R3 R             13.835  (1.02 sigma)  higher  at T =  233.7700E-06
                        (  -2.0097E+03% change per 1% change in Model Parameter)

R_R4 R_R4 R             13.835  (1.02 sigma)  higher  at T =  233.7700E-06
                        (  -2.0097E+03% change per 1% change in Model Parameter)

R_R6 R_R6 R             13.835  (1.02 sigma)  higher  at T =  267.0500E-06
                        (  -2.0098E+03% change per 1% change in Model Parameter)

R_R8 R_R8 R             13.832  (1.02 sigma)  higher  at T =  267.0400E-06
                        (  -2.0103E+03% change per 1% change in Model Parameter)

R_R7 R_R7 R             13.832  (1.02 sigma)  higher  at T =  267.0800E-06
                        (  -2.0092E+03% change per 1% change in Model Parameter)


**** 05/19/25 08:21:55 **** PSpice 24.1.0 (23 January 2025) *** ID# 0 ********

 ** Profile: "SCHEMATIC1-worst"  [ d:\facultate\an 2\semestru 2\cad\proiectul meu_pwm\proiectcad-pspicefiles\schematic1\worst.sim ] 


 ****     INITIAL TRANSIENT SOLUTION       TEMPERATURE =   27.000 DEG C

                      WORST CASE ALL DEVICES

******************************************************************************



 NODE   VOLTAGE     NODE   VOLTAGE     NODE   VOLTAGE     NODE   VOLTAGE


(  OUT)    6.8214  (  VCC)   15.0000  ( -VCC)  -15.0000  (N27745)   13.3290     

(N27789) 305.7E-06 (N27803) 589.6E-06 (N27903)   13.3290 (N28115)     .7282     

(N28363)     .3839 (N28413)    6.8211 (N28519)   -4.2784 (N30576)    1.5067     

(N30840)    6.8211 (N34705)   -4.2784 (N56018)   13.5570 (N56026)    6.4157     

(N65354)   13.3290 (X_U5.10)    0.0000                   (X_U5.11)    -.0028    

(X_U5.17)    0.0000                   (X_U5.18)    -.0027                       

(X_U5.19)    -.0031                   (X_U5.21)   -1.2500                       

(X_U5.22)   28.7500                   (X_U5.23)   28.7500                       

(X_U5.24)    1.6551                   (X_U5.25)    1.0000                       

(X_U5.26)    1.0000                   (X_U5.27)     .8337                       

(X_U5.28)     .6836                   (X_U5.29)    0.0000                       

(X_U5.31)    4.0000                   (X_U5.32)    3.0000                       

(X_U5.33)    2.0000                   (X_U5.34)    1.0000                       

(X_U5.38)    -.0028                   (X_U5.39)    -.0028                       

(X_U5.40)   15.0000                   (X_U5.41)    -.0028                       

(X_U5.42)   15.0000                   (X_U5.43)    0.0000                       

(X_U5.44)    0.0000                   (X_U5.45)    0.0000                       

(X_U5.50)  -15.0000                   (X_U5.51)   99.3000                       

(X_U5.52)  -95.8520                   (X_U5.57)     .0237                       

(X_U5.58)-633.4E-06                   (X_U5.59)    6.3342                       

(X_U5.71)    6.3328                   (X_U5.72)    5.5374                       

(X_U5.73)    2.7517                   (X_U5.74)   13.6000                       

(X_U5.75)  -13.4000                   (X_U5.76)   15.0000                       

(X_U5.77)  -15.0000                   (X_U5.78)    1.9093                       

(X_U5.79)    1.7679                   (X_U5.81)    1.7679                       

(X_U5.86) 589.6E-06                   (X_U5.91)    0.0000                       

(X_U5.92)    0.0000                   (X_U5.93)     .7832                       

(X_U5.94)    -.0028                   (X_U5.95)  -13.3000                       

(X_U5.96)    -.0028                   (X_U5.97)   13.3000                       

(X_U5.98)    -.0028                   (X_U5.99)    -.0028                       

(X_U7.10)    0.0000                   (X_U7.11)    3.1158                       

(X_U7.17)    0.0000                   (X_U7.18)    -.0017                       

(X_U7.19)    6.4113                   (X_U7.21)   -1.2500                       

(X_U7.22)   28.7500                   (X_U7.23)   28.7500                       

(X_U7.24)    1.6551                   (X_U7.25)    1.0000                       

(X_U7.26)    1.0000                   (X_U7.27)     .8337                       

(X_U7.28)     .6836                   (X_U7.29)    0.0000                       

(X_U7.31)    4.0000                   (X_U7.32)    3.0000                       

(X_U7.33)    2.0000                   (X_U7.34)    1.0000                       

(X_U7.38)    3.1158                   (X_U7.39)    3.1158                       

(X_U7.40)   15.0000                   (X_U7.41)    3.1157                       

(X_U7.42)   15.0000                   (X_U7.43)    0.0000                       

(X_U7.44)    0.0000                   (X_U7.45)    0.0000                       

(X_U7.50)  -15.0000                   (X_U7.51)   99.3000                       

(X_U7.52)  -95.8520                   (X_U7.57)  100.1700                       

(X_U7.58)   -2.6796                   (X_U7.59)   15.9190                       

(X_U7.71)   15.9170                   (X_U7.72)   15.1220                       

(X_U7.73)   14.2620                   (X_U7.74)   13.6000                       

(X_U7.75)  -13.4000                   (X_U7.76)   15.0000                       

(X_U7.77)  -15.0000                   (X_U7.78)   13.4840                       

(X_U7.79)   13.4730                   (X_U7.81)   13.4730                       

(X_U7.86)   13.3290                   (X_U7.91)    0.0000                       

(X_U7.92)    0.0000                   (X_U7.93)     .7182                       

(X_U7.94)    3.1158                   (X_U7.95)  -13.3000                       

(X_U7.96)    3.1158                   (X_U7.97)   13.3000                       

(X_U7.98)    3.1158                   (X_U7.99)    3.1158                       

(X_U8.10)    0.0000                   (X_U8.11)   -2.0824                       

(X_U8.17)    0.0000                   (X_U8.18)   -4.2805                       

(X_U8.19)    -.0033                   (X_U8.21)   -1.2500                       

(X_U8.22)   28.7500                   (X_U8.23)   28.7500                       

(X_U8.24)    1.6551                   (X_U8.25)    1.0000                       

(X_U8.26)    1.0000                   (X_U8.27)     .8337                       

(X_U8.28)     .6836                   (X_U8.29)    0.0000                       

(X_U8.31)    4.0000                   (X_U8.32)    3.0000                       

(X_U8.33)    2.0000                   (X_U8.34)    1.0000                       

(X_U8.38)   -2.0824                   (X_U8.39)   -2.0824                       

(X_U8.40)   15.0000                   (X_U8.41)   -2.0823                       

(X_U8.42)   15.0000                   (X_U8.43)    0.0000                       

(X_U8.44)    0.0000                   (X_U8.45)    0.0000                       

(X_U8.50)  -15.0000                   (X_U8.51)   99.3000                       

(X_U8.52)  -95.8520                   (X_U8.57)  100.1500                       

(X_U8.58)   -2.6790                   (X_U8.59)   15.9190                       

(X_U8.71)   15.9170                   (X_U8.72)   15.1220                       

(X_U8.73)   14.2640                   (X_U8.74)   13.6000                       

(X_U8.75)  -13.4000                   (X_U8.76)   15.0000                       

(X_U8.77)  -15.0000                   (X_U8.78)   13.5640                       

(X_U8.79)   13.5640                   (X_U8.81)   13.5640                       

(X_U8.86)   13.5570                   (X_U8.91)    0.0000                       

(X_U8.92)    0.0000                   (X_U8.93)     .6389                       

(X_U8.94)   -2.0824                   (X_U8.95)  -13.3000                       

(X_U8.96)   -2.0824                   (X_U8.97)   13.3000                       

(X_U8.98)   -2.0824                   (X_U8.99)   -2.0824                       

(X_U13.10)    0.0000                  (X_U13.11)    6.6288                      

(X_U13.17)    0.0000                  (X_U13.18)    6.8184                      

(X_U13.19)    6.8180                  (X_U13.21)   -1.2500                      

(X_U13.22)   28.7500                  (X_U13.23)   28.7500                      

(X_U13.24)    1.6551                  (X_U13.25)    1.0000                      

(X_U13.26)    1.0000                  (X_U13.27)     .8337                      

(X_U13.28)     .6836                  (X_U13.29)    0.0000                      

(X_U13.31)    4.0000                  (X_U13.32)    3.0000                      

(X_U13.33)    2.0000                  (X_U13.34)    1.0000                      

(X_U13.38)    6.6288                  (X_U13.39)    6.6288                      

(X_U13.40)   15.0000                  (X_U13.41)    6.6287                      

(X_U13.42)   15.0000                  (X_U13.43)    0.0000                      

(X_U13.44)    0.0000                  (X_U13.45)    0.0000                      

(X_U13.50)  -15.0000                  (X_U13.51)   99.3000                      

(X_U13.52)  -95.8520                  (X_U13.57)     .0259                      

(X_U13.58)-692.4E-06                  (X_U13.59)    6.9236                      

(X_U13.71)    6.9236                  (X_U13.72)    6.1370                      

(X_U13.73)    7.7099                  (X_U13.74)   13.6000                      

(X_U13.75)  -13.4000                  (X_U13.76)   15.0000                      

(X_U13.77)  -15.0000                  (X_U13.78)    6.9259                      

(X_U13.79)    6.9037                  (X_U13.81)    6.9112                      

(X_U13.86)    6.8214                  (X_U13.91)    0.0000                      

(X_U13.92)    0.0000                  (X_U13.93)     .7061                      

(X_U13.94)    6.6288                  (X_U13.95)  -13.3000                      

(X_U13.96)    6.6288                  (X_U13.97)   13.3000                      

(X_U13.98)    6.6288                  (X_U13.99)    6.6288                      

(X_U5.120)    2.0000                  (X_U5.121)    1.0000                      

(X_U5.122)    1.0009                  (X_U5.710)    6.3328                      

(X_U5.720)    5.6704                  (X_U7.120)    2.0000                      

(X_U7.121)    1.0000                  (X_U7.122)    1.0009                      

(X_U7.710)   15.9170                  (X_U7.720)   15.2550                      

(X_U8.120)    2.0000                  (X_U8.121)    1.0000                      

(X_U8.122)    1.0009                  (X_U8.710)   15.9170                      

(X_U8.720)   15.2550                  (X_U13.120)    2.0000                     

(X_U13.121)    1.0000                 (X_U13.122)    1.0009                     

(X_U13.710)    7.0490                 (X_U13.720)    6.2626                 




    VOLTAGE SOURCE CURRENTS
    NAME         CURRENT

    V_V2         2.649E-02
    V_V1        -1.870E-01
    X_U7.VOFF   -2.710E-11
    X_U7.VSENS1   1.000E-03
    X_U7.VTEMP   3.014E-06
    X_U7.VCMX    3.116E-06
    X_U7.VPSX    0.000E+00
    X_U7.VCXX   -6.232E-12
    X_U7.VOOP    1.138E-02
    X_U7.VOON    2.847E-05
    X_U7.VOX     1.147E-02
    X_U7.VFX1    1.147E-02
    X_U7.VFX2   -7.282E-13
    X_U8.VOFF   -2.710E-11
    X_U8.VSENS1   1.000E-03
    X_U8.VTEMP   3.014E-06
    X_U8.VCMX   -2.082E-06
    X_U8.VPSX    0.000E+00
    X_U8.VCXX    4.165E-12
    X_U8.VOOP    5.576E-04
    X_U8.VOON    2.856E-05
    X_U8.VOX     5.346E-04
    X_U8.VFX1    5.346E-04
    X_U8.VFX2   -6.489E-13
    X_U5.VOFF   -2.710E-11
    X_U5.VSENS1   1.000E-03
    X_U5.VTEMP   3.014E-06
    X_U5.VCMX   -2.782E-09
    X_U5.VPSX    0.000E+00
    X_U5.VCXX    5.563E-15
    X_U5.VOOP    1.400E-01
    X_U5.VOON    1.677E-05
    X_U5.VOX     1.414E-01
    X_U5.VFX1    1.414E-01
    X_U5.VFX2   -7.932E-13
    X_U13.VOFF  -2.710E-11
    X_U13.VSENS1   1.000E-03
    X_U13.VTEMP   3.014E-06
    X_U13.VCMX   6.629E-06
    X_U13.VPSX   0.000E+00
    X_U13.VCXX  -1.326E-11
    X_U13.VOOP   1.459E-02
    X_U13.VOON   7.481E-03
    X_U13.VOX    7.183E-03
    X_U13.VFX1   7.183E-03
    X_U13.VFX2  -7.161E-13

    TOTAL POWER DISSIPATION   3.20E+00  WATTS


**** 05/19/25 08:21:55 **** PSpice 24.1.0 (23 January 2025) *** ID# 0 ********

 ** Profile: "SCHEMATIC1-worst"  [ d:\facultate\an 2\semestru 2\cad\proiectul meu_pwm\proiectcad-pspicefiles\schematic1\worst.sim ] 


 ****     UPDATED MODEL PARAMETERS         TEMPERATURE =   27.000 DEG C

                      WORST CASE ALL DEVICES

******************************************************************************



Device       MODEL        PARAMETER    NEW VALUE    
C_C1         C_C1         C                .9           (Decreased)  
R_R3         R_R3         R               1.05          (Increased)  
R_R5         R_R5         R                .95          (Decreased)  
R_R2         R_R2         R                .95          (Decreased)  
R_R4         R_R4         R               1.05          (Increased)  
R_R7         R_R7         R               1.05          (Increased)  
R_R6         R_R6         R               1.05          (Increased)  
R_R1         R_R1         R               1.05          (Increased)  
R_R8         R_R8         R               1.05          (Increased)  
R_R19        R_R19        R                .95          (Decreased)  
    

**** 05/19/25 08:21:55 **** PSpice 24.1.0 (23 January 2025) *** ID# 0 ********

 ** Profile: "SCHEMATIC1-worst"  [ d:\facultate\an 2\semestru 2\cad\proiectul meu_pwm\proiectcad-pspicefiles\schematic1\worst.sim ] 


 ****     SORTED DEVIATIONS OF V(OUT)      TEMPERATURE =   27.000 DEG C

                      WORST CASE SUMMARY

******************************************************************************





Mean Deviation =  -13.758
Sigma          =    0     

 RUN                    MAX DEVIATION FROM NOMINAL

WORST CASE ALL DEVICES
                        13.758  lower  at T =   45.0970E-06
                        ( -96.545% of Nominal)



          JOB CONCLUDED

**** 05/19/25 08:21:55 **** PSpice 24.1.0 (23 January 2025) *** ID# 0 ********

 ** Profile: "SCHEMATIC1-worst"  [ d:\facultate\an 2\semestru 2\cad\proiectul meu_pwm\proiectcad-pspicefiles\schematic1\worst.sim ] 


 ****     JOB STATISTICS SUMMARY


******************************************************************************



  Total job time (using Solver 1)   =       17.77
