
**** 05/19/25 08:26:07 **** PSpice 24.1.0 (23 January 2025) *** ID# 0 ********

 ** Profile: "SCHEMATIC1-worst"  [ d:\facultate\an 2\semestru 2\cad\proiectul meu_pwm\proiectcad-pspicefiles\schematic1\worst.sim ] 


 ****     CIRCUIT DESCRIPTION


******************************************************************************




** Creating circuit file "worst.cir" 
** WARNING: THIS AUTOMATICALLY GENERATED FILE MAY BE OVERWRITTEN BY SUBSEQUENT SIMULATIONS

*Libraries: 
* Profile Libraries :
* Local Libraries :
* From [PSPICE NETLIST] section of C:\Users\user\AppData\Roaming\SPB_Data\cdssetup\OrCAD_PSpice\24.1.0\PSpice.ini file:
.lib "nom.lib" 

*Analysis directives: 
.TRAN  0 300u 0 10u 
.TEMP -20 40 100
.OPTIONS ADVCONV
.PROBE64 V(alias(*)) I(alias(*)) W(alias(*)) D(alias(*)) NOISE(alias(*)) 
.INC "..\SCHEMATIC1.net" 



**** INCLUDING SCHEMATIC1.net ****
* source PROIECTCAD
V_V2         -VCC 0 -15V
R_R3         N65354 N27903 R_R3 16k  
.model        R_R3 RES R=1 DEV=5%
X_P1    N28519 N28363 N34705 SCHEMATIC1_P1 
X_U7         N56026 0 VCC -VCC N27745 LM7171A/NS
D_D1         N27789 N27903 D1N4448 
R_R5         VCC N28363 R_R5 33k  
.model        R_R5 RES R=1 DEV=5%
D_D2         N28115 N27789 D1N4448 
R_R2         N56026 N27745 R_R2 13k  
.model        R_R2 RES R=1 DEV=5%
R_R4         N27745 N28115 R_R4 1.1k  
.model        R_R4 RES R=1 DEV=5%
R_R7         N30840 N56018 R_R7 12k  
.model        R_R7 RES R=1 DEV=5%
V_V1         VCC 0 15V
C_C1         N27789 N27803 C_C1 1n IC=0 
.model        C_C1 CAP C=1 DEV=10%
R_R6         N28519 -VCC R_R6 22k  
.model        R_R6 RES R=1 DEV=5%
R_R1         N27803 N56026 R_R1 11k  
.model        R_R1 RES R=1 DEV=5%
X_P2    N30840 N30576 N28413 SCHEMATIC1_P2 
X_U8         N27803 N34705 VCC -VCC N56018 LM7171A/NS
R_R8         0 N30576 R_R8 2.7k  
.model        R_R8 RES R=1 DEV=5%
X_U5         0 N27789 VCC -VCC N27803 LM7171A/NS
X_U13         N28413 OUT VCC -VCC OUT LM7171A/NS
R_R19         0 OUT R_R19 1k  
.model        R_R19 RES R=1 DEV=5%
R_R20         N27745 N65354  1.5k TC=0,0 
.IC         V(N27789 )=0
.PARAM  setfu=1 seta=1

.subckt SCHEMATIC1_P1 1 2 t  
RT_P1         1 t {(10k*(1-{setfu}))+.001}
RB_P1         t 2 {(10k*{setfu})+.001}
.ends SCHEMATIC1_P1

.subckt SCHEMATIC1_P2 1 2 t  
RT_P2         1 t {(10K*(1-{seta}))+.001}
RB_P2         t 2 {(10K*{seta})+.001}
.ends SCHEMATIC1_P2

**** RESUMING worst.cir ****
.END

**** 05/19/25 08:26:07 **** PSpice 24.1.0 (23 January 2025) *** ID# 0 ********

 ** Profile: "SCHEMATIC1-worst"  [ d:\facultate\an 2\semestru 2\cad\proiectul meu_pwm\proiectcad-pspicefiles\schematic1\worst.sim ] 


 ****     Diode MODEL PARAMETERS


******************************************************************************




               D1N4448         X_U7.DMOD1      X_U7.DMOD2      X_U8.DMOD1      
          IS    2.681000E-09   10.000000E-15   10.000000E-18   10.000000E-15 
           N    1.835                                                        
         ISR    1.566000E-09                                                 
         IKF     .03482                                                      
          BV  100                                                            
         IBV  100.000000E-06                                                 
          RS     .5142                                                       
          TT   11.540000E-09                                                 
         CJO    4.000000E-12                                                 
          VJ     .5                                                          
           M     .3333                                                       


               X_U8.DMOD2      X_U5.DMOD1      X_U5.DMOD2      X_U13.DMOD1     
          IS   10.000000E-18   10.000000E-15   10.000000E-18   10.000000E-15 


               X_U13.DMOD2     
          IS   10.000000E-18 


**** 05/19/25 08:26:07 **** PSpice 24.1.0 (23 January 2025) *** ID# 0 ********

 ** Profile: "SCHEMATIC1-worst"  [ d:\facultate\an 2\semestru 2\cad\proiectul meu_pwm\proiectcad-pspicefiles\schematic1\worst.sim ] 


 ****     BJT MODEL PARAMETERS


******************************************************************************




               X_U7.NPN1       X_U7.PNP1       X_U8.NPN1       X_U8.PNP1       
               NPN             PNP             NPN             PNP             
       LEVEL    1               1               1               1            
          IS    1.000000E-15    1.000000E-15    1.000000E-15    1.000000E-15 
          BF  100             100             100             100            
          NF    1               1               1               1            
          BR    1               1               1               1            
          NR    1               1               1               1            
         ISS    0               0               0               0            
          RE    0               0               0               0            
          RC    0               0               0               0            
         CJE    0               0               0               0            
         VJE     .75             .75             .75             .75         
         CJC    0               0               0               0            
         VJC     .75             .75             .75             .75         
         MJC     .33             .33             .33             .33         
        XCJC    1               1               1               1            
         CJS    0               0               0               0            
         VJS     .75             .75             .75             .75         
          KF    0               0               0               0            
          AF    1               1               1               1            
          CN    2.42            2.2             2.42            2.2          
           D     .87             .52             .87             .52         


               X_U5.NPN1       X_U5.PNP1       X_U13.NPN1      X_U13.PNP1      
               NPN             PNP             NPN             PNP             
       LEVEL    1               1               1               1            
          IS    1.000000E-15    1.000000E-15    1.000000E-15    1.000000E-15 
          BF  100             100             100             100            
          NF    1               1               1               1            
          BR    1               1               1               1            
          NR    1               1               1               1            
         ISS    0               0               0               0            
          RE    0               0               0               0            
          RC    0               0               0               0            
         CJE    0               0               0               0            
         VJE     .75             .75             .75             .75         
         CJC    0               0               0               0            
         VJC     .75             .75             .75             .75         
         MJC     .33             .33             .33             .33         
        XCJC    1               1               1               1            
         CJS    0               0               0               0            
         VJS     .75             .75             .75             .75         
          KF    0               0               0               0            
          AF    1               1               1               1            
          CN    2.42            2.2             2.42            2.2          
           D     .87             .52             .87             .52         


**** 05/19/25 08:26:07 **** PSpice 24.1.0 (23 January 2025) *** ID# 0 ********

 ** Profile: "SCHEMATIC1-worst"  [ d:\facultate\an 2\semestru 2\cad\proiectul meu_pwm\proiectcad-pspicefiles\schematic1\worst.sim ] 


 ****     Resistor MODEL PARAMETERS


******************************************************************************




               R_R3            R_R5            R_R2            R_R4            
           R    1               1               1               1            


               R_R7            R_R6            R_R1            R_R8            
           R    1               1               1               1            


               R_R19           X_U7.MRAX       X_U7.MRIB       X_U7.MRISC      
           R    1               1               1               1            
         TC1                  -70.000000E-06    4.520560E-03   -1.500000E-03 


               X_U8.MRAX       X_U8.MRIB       X_U8.MRISC      X_U5.MRAX       
           R    1               1               1               1            
         TC1  -70.000000E-06    4.520560E-03   -1.500000E-03  -70.000000E-06 


               X_U5.MRIB       X_U5.MRISC      X_U13.MRAX      X_U13.MRIB      
           R    1               1               1               1            
         TC1    4.520560E-03   -1.500000E-03  -70.000000E-06    4.520560E-03 


               X_U13.MRISC     
           R    1            
         TC1   -1.500000E-03 


**** 05/19/25 08:26:07 **** PSpice 24.1.0 (23 January 2025) *** ID# 0 ********

 ** Profile: "SCHEMATIC1-worst"  [ d:\facultate\an 2\semestru 2\cad\proiectul meu_pwm\proiectcad-pspicefiles\schematic1\worst.sim ] 


 ****     Capacitor MODEL PARAMETERS


******************************************************************************




               C_C1            
           C    1            


**** 05/19/25 08:26:07 **** PSpice 24.1.0 (23 January 2025) *** ID# 0 ********

 ** Profile: "SCHEMATIC1-worst"  [ d:\facultate\an 2\semestru 2\cad\proiectul meu_pwm\proiectcad-pspicefiles\schematic1\worst.sim ] 


 ****     TEMPERATURE-ADJUSTED VALUES      TEMPERATURE =  -20.000 DEG C


******************************************************************************




 **** CAPACITORS

                 C_C1 <C_C1>  

          C        1.000E-09  



 **** DIODE MODEL PARAMETERS

                   D1N4448      X_U7.DMOD2     X_U7.DMOD1   

         IS        2.640E-11      2.078E-21      2.078E-18  
         VJ        6.193E-01      1.041E+00      1.041E+00  
        CJO        3.657E-12      0.000E+00      0.000E+00  
         RS        5.142E-01      0.000E+00      0.000E+00  
        IKF        3.482E-02      0.000E+00      0.000E+00  
         BV        1.000E+02  

                 X_U8.DMOD2     X_U8.DMOD1     X_U5.DMOD2   

         IS        2.078E-21      2.078E-18      2.078E-21  
         VJ        1.041E+00      1.041E+00      1.041E+00  
        CJO        0.000E+00      0.000E+00      0.000E+00  
         RS        0.000E+00      0.000E+00      0.000E+00  
        IKF        0.000E+00      0.000E+00      0.000E+00  
         BV                   

                 X_U5.DMOD1     X_U13.DMOD2    X_U13.DMOD1  

         IS        2.078E-18      2.078E-21      2.078E-18  
         VJ        1.041E+00      1.041E+00      1.041E+00  
        CJO        0.000E+00      0.000E+00      0.000E+00  
         RS        0.000E+00      0.000E+00      0.000E+00  
        IKF        0.000E+00      0.000E+00      0.000E+00  
         BV                   


 **** BJT MODEL PARAMETERS

                  X_U7.NPN1      X_U7.PNP1      X_U8.NPN1   

         BF        1.000E+02      1.000E+02      1.000E+02  
        ISE        0.000E+00      0.000E+00      0.000E+00  
        VJE        8.302E-01      8.302E-01      8.302E-01  
        CJE        0.000E+00      0.000E+00      0.000E+00  
         RE        0.000E+00      0.000E+00      0.000E+00  
         RB        0.000E+00      0.000E+00      0.000E+00  
         BR        1.000E+00      1.000E+00      1.000E+00  
        ISC        0.000E+00      0.000E+00      0.000E+00  
        VJC        8.302E-01      8.302E-01      8.302E-01  
        CJC        0.000E+00      0.000E+00      0.000E+00  
         RC        0.000E+00      0.000E+00      0.000E+00  
        RBM        0.000E+00      0.000E+00      0.000E+00  
         IS        2.078E-19      2.078E-19      2.078E-19  
        ISS        0.000E+00      0.000E+00      0.000E+00  
        VJS        8.302E-01      8.302E-01      8.302E-01  
        CJS        0.000E+00      0.000E+00      0.000E+00  
      GAMMA        1.000E-11      1.000E-11      1.000E-11  
        RCO        0.000E+00      0.000E+00      0.000E+00  
         VO        1.000E+01      1.000E+01      1.000E+01  

                  X_U8.PNP1      X_U5.NPN1      X_U5.PNP1   

         BF        1.000E+02      1.000E+02      1.000E+02  
        ISE        0.000E+00      0.000E+00      0.000E+00  
        VJE        8.302E-01      8.302E-01      8.302E-01  
        CJE        0.000E+00      0.000E+00      0.000E+00  
         RE        0.000E+00      0.000E+00      0.000E+00  
         RB        0.000E+00      0.000E+00      0.000E+00  
         BR        1.000E+00      1.000E+00      1.000E+00  
        ISC        0.000E+00      0.000E+00      0.000E+00  
        VJC        8.302E-01      8.302E-01      8.302E-01  
        CJC        0.000E+00      0.000E+00      0.000E+00  
         RC        0.000E+00      0.000E+00      0.000E+00  
        RBM        0.000E+00      0.000E+00      0.000E+00  
         IS        2.078E-19      2.078E-19      2.078E-19  
        ISS        0.000E+00      0.000E+00      0.000E+00  
        VJS        8.302E-01      8.302E-01      8.302E-01  
        CJS        0.000E+00      0.000E+00      0.000E+00  
      GAMMA        1.000E-11      1.000E-11      1.000E-11  
        RCO        0.000E+00      0.000E+00      0.000E+00  
         VO        1.000E+01      1.000E+01      1.000E+01  

                 X_U13.NPN1     X_U13.PNP1                  

         BF        1.000E+02      1.000E+02  
        ISE        0.000E+00      0.000E+00  
        VJE        8.302E-01      8.302E-01  
        CJE        0.000E+00      0.000E+00  
         RE        0.000E+00      0.000E+00  
         RB        0.000E+00      0.000E+00  
         BR        1.000E+00      1.000E+00  
        ISC        0.000E+00      0.000E+00  
        VJC        8.302E-01      8.302E-01  
        CJC        0.000E+00      0.000E+00  
         RC        0.000E+00      0.000E+00  
        RBM        0.000E+00      0.000E+00  
         IS        2.078E-19      2.078E-19  
        ISS        0.000E+00      0.000E+00  
        VJS        8.302E-01      8.302E-01  
        CJS        0.000E+00      0.000E+00  
      GAMMA        1.000E-11      1.000E-11  
        RCO        0.000E+00      0.000E+00  
         VO        1.000E+01      1.000E+01  


 **** RESISTORS

                 R_R3 <R_R3>    R_R5 <R_R5>    R_R2 <R_R2>  

          R        1.600E+04      3.300E+04      1.300E+04  


                 R_R4 <R_R4>    R_R7 <R_R7>    R_R6 <R_R6>  

          R        1.100E+03      1.200E+04      2.200E+04  


                 R_R1 <R_R1>    R_R8 <R_R8>   R_R19 <R_R19> 

          R        1.100E+04      2.700E+03      1.000E+03  


               X_U7.RAX <X_U7.MRAX>
                              X_U7.RIB <X_U7.MRIB>
                                             X_U7.RISC <X_U7.MRISC>

          R        1.005E+03      7.875E+02      1.071E+03  


               X_U8.RAX <X_U8.MRAX>
                              X_U8.RIB <X_U8.MRIB>
                                             X_U8.RISC <X_U8.MRISC>

          R        1.005E+03      7.875E+02      1.071E+03  


               X_U5.RAX <X_U5.MRAX>
                              X_U5.RIB <X_U5.MRIB>
                                             X_U5.RISC <X_U5.MRISC>

          R        1.005E+03      7.875E+02      1.071E+03  


               X_U13.RAX <X_U13.MRAX>
                              X_U13.RIB <X_U13.MRIB>
                                             X_U13.RISC <X_U13.MRISC>

          R        1.005E+03      7.875E+02      1.071E+03  



**** 05/19/25 08:26:07 **** PSpice 24.1.0 (23 January 2025) *** ID# 0 ********

 ** Profile: "SCHEMATIC1-worst"  [ d:\facultate\an 2\semestru 2\cad\proiectul meu_pwm\proiectcad-pspicefiles\schematic1\worst.sim ] 


 ****     INITIAL TRANSIENT SOLUTION       TEMPERATURE =  -20.000 DEG C


******************************************************************************



 NODE   VOLTAGE     NODE   VOLTAGE     NODE   VOLTAGE     NODE   VOLTAGE


(  OUT)    6.9475  (  VCC)   15.0000  ( -VCC)  -15.0000  (N27745)   13.3410     

(N27789) 326.6E-06 (N27803) 630.4E-06 (N27903)   13.3410 (N28115)     .8031     

(N28363)    -.2681 (N28413)    6.9456 (N28519)   -4.8948 (N30576)    1.4766     

(N30840)    6.9456 (N34705)   -4.8948 (N56018)   13.5630 (N56026)    6.0809     

(N65354)   13.3410 (X_U5.10)    0.0000                   (X_U5.11)    -.0041    

(X_U5.17)    0.0000                   (X_U5.18)    -.0040                       

(X_U5.19)    -.0045                   (X_U5.21)   -1.2500                       

(X_U5.22)   28.7500                   (X_U5.23)   28.7500                       

(X_U5.24)    1.7375                   (X_U5.25)    1.0000                       

(X_U5.26)    1.0000                   (X_U5.27)     .8881                       

(X_U5.28)     .7699                   (X_U5.29)    0.0000                       

(X_U5.31)    3.8580                   (X_U5.32)    2.8580                       

(X_U5.33)    2.0705                   (X_U5.34)    1.0000                       

(X_U5.38)    -.0041                   (X_U5.39)    -.0041                       

(X_U5.40)   15.0000                   (X_U5.41)    -.0041                       

(X_U5.42)   15.0000                   (X_U5.43)    0.0000                       

(X_U5.44)    0.0000                   (X_U5.45)    0.0000                       

(X_U5.50)  -15.0000                   (X_U5.51)   99.3000                       

(X_U5.52)  -95.8520                   (X_U5.57)     .0843                       

(X_U5.58)    -.0023                   (X_U5.59)   15.7790                       

(X_U5.71)   15.7780                   (X_U5.72)   14.8900                       

(X_U5.73)    2.9409                   (X_U5.74)   13.6000                       

(X_U5.75)  -13.4000                   (X_U5.76)   15.0000                       

(X_U5.77)  -15.0000                   (X_U5.78)    2.0439                       

(X_U5.79)    1.8925                   (X_U5.81)    1.8925                       

(X_U5.86) 630.4E-06                   (X_U5.91)    0.0000                       

(X_U5.92)    0.0000                   (X_U5.93)     .8470                       

(X_U5.94)    -.0041                   (X_U5.95)  -13.3000                       

(X_U5.96)    -.0041                   (X_U5.97)   13.3000                       

(X_U5.98)    -.0041                   (X_U5.99)    -.0041                       

(X_U7.10)    0.0000                   (X_U7.11)    2.9517                       

(X_U7.17)    0.0000                   (X_U7.18)    -.0032                       

(X_U7.19)    6.0752                   (X_U7.21)   -1.2500                       

(X_U7.22)   28.7500                   (X_U7.23)   28.7500                       

(X_U7.24)    1.7375                   (X_U7.25)    1.0000                       

(X_U7.26)    1.0000                   (X_U7.27)     .8881                       

(X_U7.28)     .7699                   (X_U7.29)    0.0000                       

(X_U7.31)    3.8580                   (X_U7.32)    2.8580                       

(X_U7.33)    2.0705                   (X_U7.34)    1.0000                       

(X_U7.38)    2.9517                   (X_U7.39)    2.9517                       

(X_U7.40)   15.0000                   (X_U7.41)    2.9516                       

(X_U7.42)   15.0000                   (X_U7.43)    0.0000                       

(X_U7.44)    0.0000                   (X_U7.45)    0.0000                       

(X_U7.50)  -15.0000                   (X_U7.51)   99.3000                       

(X_U7.52)  -95.8520                   (X_U7.57)  100.2100                       

(X_U7.58)   -2.6809                   (X_U7.59)   15.9600                       

(X_U7.71)   15.9580                   (X_U7.72)   15.0710                       

(X_U7.73)   14.3450                   (X_U7.74)   13.6000                       

(X_U7.75)  -13.4000                   (X_U7.76)   15.0000                       

(X_U7.77)  -15.0000                   (X_U7.78)   13.5030                       

(X_U7.79)   13.4910                   (X_U7.81)   13.4910                       

(X_U7.86)   13.3410                   (X_U7.91)    0.0000                       

(X_U7.92)    0.0000                   (X_U7.93)     .7916                       

(X_U7.94)    2.9517                   (X_U7.95)  -13.3000                       

(X_U7.96)    2.9517                   (X_U7.97)   13.3000                       

(X_U7.98)    2.9517                   (X_U7.99)    2.9517                       

(X_U8.10)    0.0000                   (X_U8.11)   -2.3834                       

(X_U8.17)    0.0000                   (X_U8.18)   -4.8981                       

(X_U8.19)    -.0048                   (X_U8.21)   -1.2500                       

(X_U8.22)   28.7500                   (X_U8.23)   28.7500                       

(X_U8.24)    1.7375                   (X_U8.25)    1.0000                       

(X_U8.26)    1.0000                   (X_U8.27)     .8881                       

(X_U8.28)     .7699                   (X_U8.29)    0.0000                       

(X_U8.31)    3.8580                   (X_U8.32)    2.8580                       

(X_U8.33)    2.0705                   (X_U8.34)    1.0000                       

(X_U8.38)   -2.3834                   (X_U8.39)   -2.3834                       

(X_U8.40)   15.0000                   (X_U8.41)   -2.3833                       

(X_U8.42)   15.0000                   (X_U8.43)    0.0000                       

(X_U8.44)    0.0000                   (X_U8.45)    0.0000                       

(X_U8.50)  -15.0000                   (X_U8.51)   99.3000                       

(X_U8.52)  -95.8520                   (X_U8.57)  100.2100                       

(X_U8.58)   -2.6806                   (X_U8.59)   15.9600                       

(X_U8.71)   15.9580                   (X_U8.72)   15.0710                       

(X_U8.73)   14.3460                   (X_U8.74)   13.6000                       

(X_U8.75)  -13.4000                   (X_U8.76)   15.0000                       

(X_U8.77)  -15.0000                   (X_U8.78)   13.5710                       

(X_U8.79)   13.5700                   (X_U8.81)   13.5700                       

(X_U8.86)   13.5630                   (X_U8.91)    0.0000                       

(X_U8.92)    0.0000                   (X_U8.93)     .7245                       

(X_U8.94)   -2.3834                   (X_U8.95)  -13.3000                       

(X_U8.96)   -2.3834                   (X_U8.97)   13.3000                       

(X_U8.98)   -2.3834                   (X_U8.99)   -2.3834                       

(X_U13.10)    0.0000                  (X_U13.11)    6.7492                      

(X_U13.17)    0.0000                  (X_U13.18)    6.9430                      

(X_U13.19)    6.9410                  (X_U13.21)   -1.2500                      

(X_U13.22)   28.7500                  (X_U13.23)   28.7500                      

(X_U13.24)    1.7375                  (X_U13.25)    1.0000                      

(X_U13.26)    1.0000                  (X_U13.27)     .8881                      

(X_U13.28)     .7699                  (X_U13.29)    0.0000                      

(X_U13.31)    3.8580                  (X_U13.32)    2.8580                      

(X_U13.33)    2.0705                  (X_U13.34)    1.0000                      

(X_U13.38)    6.7492                  (X_U13.39)    6.7492                      

(X_U13.40)   15.0000                  (X_U13.41)    6.7491                      

(X_U13.42)   15.0000                  (X_U13.43)    0.0000                      

(X_U13.44)    0.0000                  (X_U13.45)    0.0000                      

(X_U13.50)  -15.0000                  (X_U13.51)   99.3000                      

(X_U13.52)  -95.8520                  (X_U13.57)     .0263                      

(X_U13.58)-704.2E-06                  (X_U13.59)    7.0416                      

(X_U13.71)    7.0416                  (X_U13.72)    6.1718                      

(X_U13.73)    7.9121                  (X_U13.74)   13.6000                      

(X_U13.75)  -13.4000                  (X_U13.76)   15.0000                      

(X_U13.77)  -15.0000                  (X_U13.78)    7.0568                      

(X_U13.79)    7.0189                  (X_U13.81)    7.0344                      

(X_U13.86)    6.9475                  (X_U13.91)    0.0000                      

(X_U13.92)    0.0000                  (X_U13.93)     .7798                      

(X_U13.94)    6.7492                  (X_U13.95)  -13.3000                      

(X_U13.96)    6.7492                  (X_U13.97)   13.3000                      

(X_U13.98)    6.7492                  (X_U13.99)    6.7492                      

(X_U5.120)    2.0000                  (X_U5.121)    1.0000                      

(X_U5.122)    1.0026                  (X_U5.710)   15.7780                      

(X_U5.720)   15.0330                  (X_U7.120)    2.0000                      

(X_U7.121)    1.0000                  (X_U7.122)    1.0026                      

(X_U7.710)   15.9580                  (X_U7.720)   15.2130                      

(X_U8.120)    2.0000                  (X_U8.121)    1.0000                      

(X_U8.122)    1.0026                  (X_U8.710)   15.9580                      

(X_U8.720)   15.2130                  (X_U13.120)    2.0000                     

(X_U13.121)    1.0000                 (X_U13.122)    1.0026                     

(X_U13.710)    7.1693                 (X_U13.720)    6.2989                 




    VOLTAGE SOURCE CURRENTS
    NAME         CURRENT

    V_V2         2.650E-02
    V_V1        -1.973E-01
    X_U7.VOFF   -2.701E-11
    X_U7.VSENS1   1.000E-03
    X_U7.VTEMP   4.420E-06
    X_U7.VCMX    2.952E-06
    X_U7.VPSX    0.000E+00
    X_U7.VCXX   -5.903E-12
    X_U7.VOOP    1.187E-02
    X_U7.VOON    2.849E-05
    X_U7.VOX     1.196E-02
    X_U7.VFX1    1.196E-02
    X_U7.VFX2   -7.916E-13
    X_U8.VOFF   -2.701E-11
    X_U8.VSENS1   1.000E-03
    X_U8.VTEMP   4.420E-06
    X_U8.VCMX   -2.383E-06
    X_U8.VPSX    0.000E+00
    X_U8.VCXX    4.767E-12
    X_U8.VOOP    5.743E-04
    X_U8.VOON    2.857E-05
    X_U8.VOX     5.515E-04
    X_U8.VFX1    5.515E-04
    X_U8.VFX2   -7.245E-13
    X_U5.VOFF   -2.701E-11
    X_U5.VSENS1   1.000E-03
    X_U5.VTEMP   4.420E-06
    X_U5.VCMX   -4.139E-09
    X_U5.VPSX    0.000E+00
    X_U5.VCXX    8.278E-15
    X_U5.VOOP    1.499E-01
    X_U5.VOON    1.689E-05
    X_U5.VOX     1.514E-01
    X_U5.VFX1    1.514E-01
    X_U5.VFX2   -8.470E-13
    X_U13.VOFF  -2.701E-11
    X_U13.VSENS1   1.000E-03
    X_U13.VTEMP   4.420E-06
    X_U13.VCMX   6.749E-06
    X_U13.VPSX   0.000E+00
    X_U13.VCXX  -1.350E-11
    X_U13.VOOP   2.218E-02
    X_U13.VOON   1.530E-02
    X_U13.VOX    6.952E-03
    X_U13.VFX1   6.952E-03
    X_U13.VFX2  -7.798E-13

    TOTAL POWER DISSIPATION   3.36E+00  WATTS


**** 05/19/25 08:26:07 **** PSpice 24.1.0 (23 January 2025) *** ID# 0 ********

 ** Profile: "SCHEMATIC1-worst"  [ d:\facultate\an 2\semestru 2\cad\proiectul meu_pwm\proiectcad-pspicefiles\schematic1\worst.sim ] 


 ****     TEMPERATURE-ADJUSTED VALUES      TEMPERATURE =   40.000 DEG C


******************************************************************************




 **** CAPACITORS

                 C_C1 <C_C1>                                

          C        1.000E-09  



 **** DIODE MODEL PARAMETERS

                   D1N4448      X_U7.DMOD2     X_U7.DMOD1   

         IS        7.587E-09      6.745E-17      6.745E-14  
         VJ        4.664E-01      9.881E-01      9.881E-01  
        CJO        4.097E-12      0.000E+00      0.000E+00  
         RS        5.142E-01      0.000E+00      0.000E+00  
        IKF        3.482E-02      0.000E+00      0.000E+00  
         BV        1.000E+02  

                 X_U8.DMOD2     X_U8.DMOD1     X_U5.DMOD2   

         IS        6.745E-17      6.745E-14      6.745E-17  
         VJ        9.881E-01      9.881E-01      9.881E-01  
        CJO        0.000E+00      0.000E+00      0.000E+00  
         RS        0.000E+00      0.000E+00      0.000E+00  
        IKF        0.000E+00      0.000E+00      0.000E+00  
         BV                   

                 X_U5.DMOD1     X_U13.DMOD2    X_U13.DMOD1  

         IS        6.745E-14      6.745E-17      6.745E-14  
         VJ        9.881E-01      9.881E-01      9.881E-01  
        CJO        0.000E+00      0.000E+00      0.000E+00  
         RS        0.000E+00      0.000E+00      0.000E+00  
        IKF        0.000E+00      0.000E+00      0.000E+00  
         BV                   


 **** BJT MODEL PARAMETERS

                  X_U7.NPN1      X_U7.PNP1      X_U8.NPN1   

         BF        1.000E+02      1.000E+02      1.000E+02  
        ISE        0.000E+00      0.000E+00      0.000E+00  
        VJE        7.272E-01      7.272E-01      7.272E-01  
        CJE        0.000E+00      0.000E+00      0.000E+00  
         RE        0.000E+00      0.000E+00      0.000E+00  
         RB        0.000E+00      0.000E+00      0.000E+00  
         BR        1.000E+00      1.000E+00      1.000E+00  
        ISC        0.000E+00      0.000E+00      0.000E+00  
        VJC        7.272E-01      7.272E-01      7.272E-01  
        CJC        0.000E+00      0.000E+00      0.000E+00  
         RC        0.000E+00      0.000E+00      0.000E+00  
        RBM        0.000E+00      0.000E+00      0.000E+00  
         IS        6.745E-15      6.745E-15      6.745E-15  
        ISS        0.000E+00      0.000E+00      0.000E+00  
        VJS        7.272E-01      7.272E-01      7.272E-01  
        CJS        0.000E+00      0.000E+00      0.000E+00  
      GAMMA        1.000E-11      1.000E-11      1.000E-11  
        RCO        0.000E+00      0.000E+00      0.000E+00  
         VO        1.000E+01      1.000E+01      1.000E+01  

                  X_U8.PNP1      X_U5.NPN1      X_U5.PNP1   

         BF        1.000E+02      1.000E+02      1.000E+02  
        ISE        0.000E+00      0.000E+00      0.000E+00  
        VJE        7.272E-01      7.272E-01      7.272E-01  
        CJE        0.000E+00      0.000E+00      0.000E+00  
         RE        0.000E+00      0.000E+00      0.000E+00  
         RB        0.000E+00      0.000E+00      0.000E+00  
         BR        1.000E+00      1.000E+00      1.000E+00  
        ISC        0.000E+00      0.000E+00      0.000E+00  
        VJC        7.272E-01      7.272E-01      7.272E-01  
        CJC        0.000E+00      0.000E+00      0.000E+00  
         RC        0.000E+00      0.000E+00      0.000E+00  
        RBM        0.000E+00      0.000E+00      0.000E+00  
         IS        6.745E-15      6.745E-15      6.745E-15  
        ISS        0.000E+00      0.000E+00      0.000E+00  
        VJS        7.272E-01      7.272E-01      7.272E-01  
        CJS        0.000E+00      0.000E+00      0.000E+00  
      GAMMA        1.000E-11      1.000E-11      1.000E-11  
        RCO        0.000E+00      0.000E+00      0.000E+00  
         VO        1.000E+01      1.000E+01      1.000E+01  

                 X_U13.NPN1     X_U13.PNP1                  

         BF        1.000E+02      1.000E+02  
        ISE        0.000E+00      0.000E+00  
        VJE        7.272E-01      7.272E-01  
        CJE        0.000E+00      0.000E+00  
         RE        0.000E+00      0.000E+00  
         RB        0.000E+00      0.000E+00  
         BR        1.000E+00      1.000E+00  
        ISC        0.000E+00      0.000E+00  
        VJC        7.272E-01      7.272E-01  
        CJC        0.000E+00      0.000E+00  
         RC        0.000E+00      0.000E+00  
        RBM        0.000E+00      0.000E+00  
         IS        6.745E-15      6.745E-15  
        ISS        0.000E+00      0.000E+00  
        VJS        7.272E-01      7.272E-01  
        CJS        0.000E+00      0.000E+00  
      GAMMA        1.000E-11      1.000E-11  
        RCO        0.000E+00      0.000E+00  
         VO        1.000E+01      1.000E+01  


 **** RESISTORS

                 R_R3 <R_R3>    R_R5 <R_R5>    R_R2 <R_R2>  

          R        1.600E+04      3.300E+04      1.300E+04  


                 R_R4 <R_R4>    R_R7 <R_R7>    R_R6 <R_R6>  

          R        1.100E+03      1.200E+04      2.200E+04  


                 R_R1 <R_R1>    R_R8 <R_R8>   R_R19 <R_R19> 

          R        1.100E+04      2.700E+03      1.000E+03  


               X_U7.RAX <X_U7.MRAX>
                              X_U7.RIB <X_U7.MRIB>
                                             X_U7.RISC <X_U7.MRISC>

          R        1.001E+03      1.059E+03      9.805E+02  


               X_U8.RAX <X_U8.MRAX>
                              X_U8.RIB <X_U8.MRIB>
                                             X_U8.RISC <X_U8.MRISC>

          R        1.001E+03      1.059E+03      9.805E+02  


               X_U5.RAX <X_U5.MRAX>
                              X_U5.RIB <X_U5.MRIB>
                                             X_U5.RISC <X_U5.MRISC>

          R        1.001E+03      1.059E+03      9.805E+02  


               X_U13.RAX <X_U13.MRAX>
                              X_U13.RIB <X_U13.MRIB>
                                             X_U13.RISC <X_U13.MRISC>

          R        1.001E+03      1.059E+03      9.805E+02  



**** 05/19/25 08:26:07 **** PSpice 24.1.0 (23 January 2025) *** ID# 0 ********

 ** Profile: "SCHEMATIC1-worst"  [ d:\facultate\an 2\semestru 2\cad\proiectul meu_pwm\proiectcad-pspicefiles\schematic1\worst.sim ] 


 ****     INITIAL TRANSIENT SOLUTION       TEMPERATURE =   40.000 DEG C


******************************************************************************



 NODE   VOLTAGE     NODE   VOLTAGE     NODE   VOLTAGE     NODE   VOLTAGE


(  OUT)    6.9510  (  VCC)   15.0000  ( -VCC)  -15.0000  (N27745)   13.3150     

(N27789) 283.5E-06 (N27803) 544.2E-06 (N27903)   13.3150 (N28115)     .7107     

(N28363)    -.2500 (N28413)    6.9512 (N28519)   -4.8712 (N30576)    1.4778     

(N30840)    6.9512 (N34705)   -4.8712 (N56018)   13.5540 (N56026)    6.0787     

(N65354)   13.3150 (X_U5.10)    0.0000                   (X_U5.11)    -.0026    

(X_U5.17)    0.0000                   (X_U5.18)    -.0024                       

(X_U5.19)    -.0028                   (X_U5.21)   -1.2500                       

(X_U5.22)   28.7500                   (X_U5.23)   28.7500                       

(X_U5.24)    1.6320                   (X_U5.25)    1.0000                       

(X_U5.26)    1.0000                   (X_U5.27)     .8183                       

(X_U5.28)     .6594                   (X_U5.29)    0.0000                       

(X_U5.31)    4.0393                   (X_U5.32)    3.0393                       

(X_U5.33)    1.9805                   (X_U5.34)    1.0000                       

(X_U5.38)    -.0026                   (X_U5.39)    -.0026                       

(X_U5.40)   15.0000                   (X_U5.41)    -.0026                       

(X_U5.42)   15.0000                   (X_U5.43)    0.0000                       

(X_U5.44)    0.0000                   (X_U5.45)    0.0000                       

(X_U5.50)  -15.0000                   (X_U5.51)   99.3000                       

(X_U5.52)  -95.8520                   (X_U5.57)     .0075                       

(X_U5.58)-200.4E-06                   (X_U5.59)    2.0036                       

(X_U5.71)    2.0024                   (X_U5.72)    1.2329                       

(X_U5.73)    2.5775                   (X_U5.74)   13.6000                       

(X_U5.75)  -13.4000                   (X_U5.76)   15.0000                       

(X_U5.77)  -15.0000                   (X_U5.78)    1.7524                       

(X_U5.79)    1.6226                   (X_U5.81)    1.6226                       

(X_U5.86) 544.2E-06                   (X_U5.91)    0.0000                       

(X_U5.92)    0.0000                   (X_U5.93)     .7633                       

(X_U5.94)    -.0026                   (X_U5.95)  -13.3000                       

(X_U5.96)    -.0026                   (X_U5.97)   13.3000                       

(X_U5.98)    -.0026                   (X_U5.99)    -.0026                       

(X_U7.10)    0.0000                   (X_U7.11)    2.9522                       

(X_U7.17)    0.0000                   (X_U7.18)    -.0015                       

(X_U7.19)    6.0747                   (X_U7.21)   -1.2500                       

(X_U7.22)   28.7500                   (X_U7.23)   28.7500                       

(X_U7.24)    1.6320                   (X_U7.25)    1.0000                       

(X_U7.26)    1.0000                   (X_U7.27)     .8183                       

(X_U7.28)     .6594                   (X_U7.29)    0.0000                       

(X_U7.31)    4.0393                   (X_U7.32)    3.0393                       

(X_U7.33)    1.9805                   (X_U7.34)    1.0000                       

(X_U7.38)    2.9522                   (X_U7.39)    2.9522                       

(X_U7.40)   15.0000                   (X_U7.41)    2.9522                       

(X_U7.42)   15.0000                   (X_U7.43)    0.0000                       

(X_U7.44)    0.0000                   (X_U7.45)    0.0000                       

(X_U7.50)  -15.0000                   (X_U7.51)   99.3000                       

(X_U7.52)  -95.8520                   (X_U7.57)  100.1500                       

(X_U7.58)   -2.6792                   (X_U7.59)   15.9070                       

(X_U7.71)   15.9060                   (X_U7.72)   15.1360                       

(X_U7.73)   14.2380                   (X_U7.74)   13.6000                       

(X_U7.75)  -13.4000                   (X_U7.76)   15.0000                       

(X_U7.77)  -15.0000                   (X_U7.78)   13.4770                       

(X_U7.79)   13.4650                   (X_U7.81)   13.4650                       

(X_U7.86)   13.3150                   (X_U7.91)    0.0000                       

(X_U7.92)    0.0000                   (X_U7.93)     .6991                       

(X_U7.94)    2.9522                   (X_U7.95)  -13.3000                       

(X_U7.96)    2.9522                   (X_U7.97)   13.3000                       

(X_U7.98)    2.9522                   (X_U7.99)    2.9522                       

(X_U8.10)    0.0000                   (X_U8.11)   -2.3703                       

(X_U8.17)    0.0000                   (X_U8.18)   -4.8729                       

(X_U8.19)    -.0032                   (X_U8.21)   -1.2500                       

(X_U8.22)   28.7500                   (X_U8.23)   28.7500                       

(X_U8.24)    1.6320                   (X_U8.25)    1.0000                       

(X_U8.26)    1.0000                   (X_U8.27)     .8183                       

(X_U8.28)     .6594                   (X_U8.29)    0.0000                       

(X_U8.31)    4.0393                   (X_U8.32)    3.0393                       

(X_U8.33)    1.9805                   (X_U8.34)    1.0000                       

(X_U8.38)   -2.3703                   (X_U8.39)   -2.3703                       

(X_U8.40)   15.0000                   (X_U8.41)   -2.3703                       

(X_U8.42)   15.0000                   (X_U8.43)    0.0000                       

(X_U8.44)    0.0000                   (X_U8.45)    0.0000                       

(X_U8.50)  -15.0000                   (X_U8.51)   99.3000                       

(X_U8.52)  -95.8520                   (X_U8.57)  100.1400                       

(X_U8.58)   -2.6789                   (X_U8.59)   15.9070                       

(X_U8.71)   15.9060                   (X_U8.72)   15.1360                       

(X_U8.73)   14.2400                   (X_U8.74)   13.6000                       

(X_U8.75)  -13.4000                   (X_U8.76)   15.0000                       

(X_U8.77)  -15.0000                   (X_U8.78)   13.5610                       

(X_U8.79)   13.5610                   (X_U8.81)   13.5610                       

(X_U8.86)   13.5540                   (X_U8.91)    0.0000                       

(X_U8.92)    0.0000                   (X_U8.93)     .6158                       

(X_U8.94)   -2.3703                   (X_U8.95)  -13.3000                       

(X_U8.96)   -2.3703                   (X_U8.97)   13.3000                       

(X_U8.98)   -2.3703                   (X_U8.99)   -2.3703                       

(X_U13.10)    0.0000                  (X_U13.11)    6.7552                      

(X_U13.17)    0.0000                  (X_U13.18)    6.9482                      

(X_U13.19)    6.9483                  (X_U13.21)   -1.2500                      

(X_U13.22)   28.7500                  (X_U13.23)   28.7500                      

(X_U13.24)    1.6320                  (X_U13.25)    1.0000                      

(X_U13.26)    1.0000                  (X_U13.27)     .8183                      

(X_U13.28)     .6594                  (X_U13.29)    0.0000                      

(X_U13.31)    4.0393                  (X_U13.32)    3.0393                      

(X_U13.33)    1.9805                  (X_U13.34)    1.0000                      

(X_U13.38)    6.7552                  (X_U13.39)    6.7552                      

(X_U13.40)   15.0000                  (X_U13.41)    6.7551                      

(X_U13.42)   15.0000                  (X_U13.43)    0.0000                      

(X_U13.44)    0.0000                  (X_U13.45)    0.0000                      

(X_U13.50)  -15.0000                  (X_U13.51)   99.3000                      

(X_U13.52)  -95.8520                  (X_U13.57)     .0264                      

(X_U13.58)-705.2E-06                  (X_U13.59)    7.0518                      

(X_U13.71)    7.0518                  (X_U13.72)    6.2895                      

(X_U13.73)    7.8140                  (X_U13.74)   13.6000                      

(X_U13.75)  -13.4000                  (X_U13.76)   15.0000                      

(X_U13.77)  -15.0000                  (X_U13.78)    7.0509                      

(X_U13.79)    7.0319                  (X_U13.81)    7.0379                      

(X_U13.86)    6.9510                  (X_U13.91)    0.0000                      

(X_U13.92)    0.0000                  (X_U13.93)     .6843                      

(X_U13.94)    6.7552                  (X_U13.95)  -13.3000                      

(X_U13.96)    6.7552                  (X_U13.97)   13.3000                      

(X_U13.98)    6.7552                  (X_U13.99)    6.7552                      

(X_U5.120)    2.0000                  (X_U5.121)    1.0000                      

(X_U5.122)    1.0005                  (X_U5.710)    2.0112                      

(X_U5.720)    1.3633                  (X_U7.120)    2.0000                      

(X_U7.121)    1.0000                  (X_U7.122)    1.0005                      

(X_U7.710)   15.9060                  (X_U7.720)   15.2670                      

(X_U8.120)    2.0000                  (X_U8.121)    1.0000                      

(X_U8.122)    1.0005                  (X_U8.710)   15.9060                      

(X_U8.720)   15.2670                  (X_U13.120)    2.0000                     

(X_U13.121)    1.0000                 (X_U13.122)    1.0005                     

(X_U13.710)    7.1762                 (X_U13.720)    6.4139                 




    VOLTAGE SOURCE CURRENTS
    NAME         CURRENT

    V_V2         2.648E-02
    V_V1        -1.757E-01
    X_U7.VOFF   -2.719E-11
    X_U7.VSENS1   1.000E-03
    X_U7.VTEMP   2.767E-06
    X_U7.VCMX    2.952E-06
    X_U7.VPSX    0.000E+00
    X_U7.VCXX   -5.904E-12
    X_U7.VOOP    1.192E-02
    X_U7.VOON    2.847E-05
    X_U7.VOX     1.202E-02
    X_U7.VFX1    1.202E-02
    X_U7.VFX2   -7.665E-13
    X_U8.VOFF   -2.719E-11
    X_U8.VSENS1   1.000E-03
    X_U8.VTEMP   2.767E-06
    X_U8.VCMX   -2.370E-06
    X_U8.VPSX    0.000E+00
    X_U8.VCXX    4.741E-12
    X_U8.VOOP    5.731E-04
    X_U8.VOON    2.856E-05
    X_U8.VOX     5.502E-04
    X_U8.VFX1    5.502E-04
    X_U8.VFX2   -6.833E-13
    X_U5.VOFF   -2.719E-11
    X_U5.VSENS1   1.000E-03
    X_U5.VTEMP   2.767E-06
    X_U5.VCMX   -2.552E-09
    X_U5.VPSX    0.000E+00
    X_U5.VCXX    5.104E-15
    X_U5.VOOP    1.285E-01
    X_U5.VOON    1.664E-05
    X_U5.VOX     1.298E-01
    X_U5.VFX1    1.298E-01
    X_U5.VFX2   -8.307E-13
    X_U13.VOFF  -2.719E-11
    X_U13.VSENS1   1.000E-03
    X_U13.VTEMP   2.767E-06
    X_U13.VCMX   6.755E-06
    X_U13.VPSX   0.000E+00
    X_U13.VCXX  -1.351E-11
    X_U13.VOOP   1.289E-02
    X_U13.VOON   6.005E-03
    X_U13.VOX    6.954E-03
    X_U13.VFX1   6.954E-03
    X_U13.VFX2  -7.517E-13

    TOTAL POWER DISSIPATION   3.03E+00  WATTS


**** 05/19/25 08:26:07 **** PSpice 24.1.0 (23 January 2025) *** ID# 0 ********

 ** Profile: "SCHEMATIC1-worst"  [ d:\facultate\an 2\semestru 2\cad\proiectul meu_pwm\proiectcad-pspicefiles\schematic1\worst.sim ] 


 ****     TEMPERATURE-ADJUSTED VALUES      TEMPERATURE =  100.000 DEG C


******************************************************************************




 **** CAPACITORS

                 C_C1 <C_C1>                                

          C        1.000E-09  



 **** DIODE MODEL PARAMETERS

                   D1N4448      X_U7.DMOD2     X_U7.DMOD1   

         IS        3.715E-07      8.509E-14      8.509E-11  
         VJ        3.083E-01      9.299E-01      9.299E-01  
        CJO        4.550E-12      0.000E+00      0.000E+00  
         RS        5.142E-01      0.000E+00      0.000E+00  
        IKF        3.482E-02      0.000E+00      0.000E+00  
         BV        1.000E+02  

                 X_U8.DMOD2     X_U8.DMOD1     X_U5.DMOD2   

         IS        8.509E-14      8.509E-11      8.509E-14  
         VJ        9.299E-01      9.299E-01      9.299E-01  
        CJO        0.000E+00      0.000E+00      0.000E+00  
         RS        0.000E+00      0.000E+00      0.000E+00  
        IKF        0.000E+00      0.000E+00      0.000E+00  
         BV                   

                 X_U5.DMOD1     X_U13.DMOD2    X_U13.DMOD1  

         IS        8.509E-11      8.509E-14      8.509E-11  
         VJ        9.299E-01      9.299E-01      9.299E-01  
        CJO        0.000E+00      0.000E+00      0.000E+00  
         RS        0.000E+00      0.000E+00      0.000E+00  
        IKF        0.000E+00      0.000E+00      0.000E+00  
         BV                   


 **** BJT MODEL PARAMETERS

                  X_U7.NPN1      X_U7.PNP1      X_U8.NPN1   

         BF        1.000E+02      1.000E+02      1.000E+02  
        ISE        0.000E+00      0.000E+00      0.000E+00  
        VJE        6.191E-01      6.191E-01      6.191E-01  
        CJE        0.000E+00      0.000E+00      0.000E+00  
         RE        0.000E+00      0.000E+00      0.000E+00  
         RB        0.000E+00      0.000E+00      0.000E+00  
         BR        1.000E+00      1.000E+00      1.000E+00  
        ISC        0.000E+00      0.000E+00      0.000E+00  
        VJC        6.191E-01      6.191E-01      6.191E-01  
        CJC        0.000E+00      0.000E+00      0.000E+00  
         RC        0.000E+00      0.000E+00      0.000E+00  
        RBM        0.000E+00      0.000E+00      0.000E+00  
         IS        8.509E-12      8.509E-12      8.509E-12  
        ISS        0.000E+00      0.000E+00      0.000E+00  
        VJS        6.191E-01      6.191E-01      6.191E-01  
        CJS        0.000E+00      0.000E+00      0.000E+00  
      GAMMA        1.000E-11      1.000E-11      1.000E-11  
        RCO        0.000E+00      0.000E+00      0.000E+00  
         VO        1.000E+01      1.000E+01      1.000E+01  

                  X_U8.PNP1      X_U5.NPN1      X_U5.PNP1   

         BF        1.000E+02      1.000E+02      1.000E+02  
        ISE        0.000E+00      0.000E+00      0.000E+00  
        VJE        6.191E-01      6.191E-01      6.191E-01  
        CJE        0.000E+00      0.000E+00      0.000E+00  
         RE        0.000E+00      0.000E+00      0.000E+00  
         RB        0.000E+00      0.000E+00      0.000E+00  
         BR        1.000E+00      1.000E+00      1.000E+00  
        ISC        0.000E+00      0.000E+00      0.000E+00  
        VJC        6.191E-01      6.191E-01      6.191E-01  
        CJC        0.000E+00      0.000E+00      0.000E+00  
         RC        0.000E+00      0.000E+00      0.000E+00  
        RBM        0.000E+00      0.000E+00      0.000E+00  
         IS        8.509E-12      8.509E-12      8.509E-12  
        ISS        0.000E+00      0.000E+00      0.000E+00  
        VJS        6.191E-01      6.191E-01      6.191E-01  
        CJS        0.000E+00      0.000E+00      0.000E+00  
      GAMMA        1.000E-11      1.000E-11      1.000E-11  
        RCO        0.000E+00      0.000E+00      0.000E+00  
         VO        1.000E+01      1.000E+01      1.000E+01  

                 X_U13.NPN1     X_U13.PNP1                  

         BF        1.000E+02      1.000E+02  
        ISE        0.000E+00      0.000E+00  
        VJE        6.191E-01      6.191E-01  
        CJE        0.000E+00      0.000E+00  
         RE        0.000E+00      0.000E+00  
         RB        0.000E+00      0.000E+00  
         BR        1.000E+00      1.000E+00  
        ISC        0.000E+00      0.000E+00  
        VJC        6.191E-01      6.191E-01  
        CJC        0.000E+00      0.000E+00  
         RC        0.000E+00      0.000E+00  
        RBM        0.000E+00      0.000E+00  
         IS        8.509E-12      8.509E-12  
        ISS        0.000E+00      0.000E+00  
        VJS        6.191E-01      6.191E-01  
        CJS        0.000E+00      0.000E+00  
      GAMMA        1.000E-11      1.000E-11  
        RCO        0.000E+00      0.000E+00  
         VO        1.000E+01      1.000E+01  


 **** RESISTORS

                 R_R3 <R_R3>    R_R5 <R_R5>    R_R2 <R_R2>  

          R        1.600E+04      3.300E+04      1.300E+04  


                 R_R4 <R_R4>    R_R7 <R_R7>    R_R6 <R_R6>  

          R        1.100E+03      1.200E+04      2.200E+04  


                 R_R1 <R_R1>    R_R8 <R_R8>   R_R19 <R_R19> 

          R        1.100E+04      2.700E+03      1.000E+03  


               X_U7.RAX <X_U7.MRAX>
                              X_U7.RIB <X_U7.MRIB>
                                             X_U7.RISC <X_U7.MRISC>

          R        9.968E+02      1.330E+03      8.905E+02  


               X_U8.RAX <X_U8.MRAX>
                              X_U8.RIB <X_U8.MRIB>
                                             X_U8.RISC <X_U8.MRISC>

          R        9.968E+02      1.330E+03      8.905E+02  


               X_U5.RAX <X_U5.MRAX>
                              X_U5.RIB <X_U5.MRIB>
                                             X_U5.RISC <X_U5.MRISC>

          R        9.968E+02      1.330E+03      8.905E+02  


               X_U13.RAX <X_U13.MRAX>
                              X_U13.RIB <X_U13.MRIB>
                                             X_U13.RISC <X_U13.MRISC>

          R        9.968E+02      1.330E+03      8.905E+02  



**** 05/19/25 08:26:07 **** PSpice 24.1.0 (23 January 2025) *** ID# 0 ********

 ** Profile: "SCHEMATIC1-worst"  [ d:\facultate\an 2\semestru 2\cad\proiectul meu_pwm\proiectcad-pspicefiles\schematic1\worst.sim ] 


 ****     INITIAL TRANSIENT SOLUTION       TEMPERATURE =  100.000 DEG C


******************************************************************************



 NODE   VOLTAGE     NODE   VOLTAGE     NODE   VOLTAGE     NODE   VOLTAGE


(  OUT)    6.9482  (  VCC)   15.0000  ( -VCC)  -15.0000  (N27745)   13.2870     

(N27789)-215.1E-06 (N27803)-453.3E-06 (N27903)   13.2710 (N28115)     .6139     

(N28363)    -.2417 (N28413)    6.9505 (N28519)   -4.8604 (N30576)    1.4777     

(N30840)    6.9505 (N34705)   -4.8604 (N56018)   13.5430 (N56026)    6.0699     

(N65354)   13.2860 (X_U5.10)    0.0000                   (X_U5.11)    -.0021    

(X_U5.17)    0.0000                   (X_U5.18)    -.0022                       

(X_U5.19)    -.0020                   (X_U5.21)   -1.2500                       

(X_U5.22)   28.7500                   (X_U5.23)   28.7500                       

(X_U5.24)    1.5235                   (X_U5.25)    1.0000                       

(X_U5.26)    1.0000                   (X_U5.27)     .7455                       

(X_U5.28)     .5459                   (X_U5.29)    0.0000                       

(X_U5.31)    4.2205                   (X_U5.32)    3.2205                       

(X_U5.33)    1.8905                   (X_U5.34)    1.0000                       

(X_U5.38)    -.0021                   (X_U5.39)    -.0021                       

(X_U5.40)   15.0000                   (X_U5.41)    -.0021                       

(X_U5.42)   15.0000                   (X_U5.43)    0.0000                       

(X_U5.44)    0.0000                   (X_U5.45)    0.0000                       

(X_U5.50)  -15.0000                   (X_U5.51)   99.3000                       

(X_U5.52)  -95.8520                   (X_U5.57)    -.0526                       

(X_U5.58)     .0014                   (X_U5.59)  -14.0730                       

(X_U5.71)  -14.0720                   (X_U5.72)   -2.3665                       

(X_U5.73)  -13.4170                   (X_U5.74)   13.6000                       

(X_U5.75)  -13.4000                   (X_U5.76)   15.0000                       

(X_U5.77)  -15.0000                   (X_U5.78)   -1.4959                       

(X_U5.79)   -1.6155                   (X_U5.81)   -1.4959                       

(X_U5.86)-453.3E-06                   (X_U5.91)    0.0000                       

(X_U5.92)    0.0000                   (X_U5.93)    -.6773                       

(X_U5.94)    -.0021                   (X_U5.95)  -13.3000                       

(X_U5.96)    -.0021                   (X_U5.97)   13.3000                       

(X_U5.98)    -.0021                   (X_U5.99)    -.0021                       

(X_U7.10)    0.0000                   (X_U7.11)    2.9487                       

(X_U7.17)    0.0000                   (X_U7.18)-799.0E-06                       

(X_U7.19)    6.0667                   (X_U7.21)   -1.2500                       

(X_U7.22)   28.7500                   (X_U7.23)   28.7500                       

(X_U7.24)    1.5235                   (X_U7.25)    1.0000                       

(X_U7.26)    1.0000                   (X_U7.27)     .7455                       

(X_U7.28)     .5459                   (X_U7.29)    0.0000                       

(X_U7.31)    4.2205                   (X_U7.32)    3.2205                       

(X_U7.33)    1.8905                   (X_U7.34)    1.0000                       

(X_U7.38)    2.9487                   (X_U7.39)    2.9487                       

(X_U7.40)   15.0000                   (X_U7.41)    2.9486                       

(X_U7.42)   15.0000                   (X_U7.43)    0.0000                       

(X_U7.44)    0.0000                   (X_U7.45)    0.0000                       

(X_U7.50)  -15.0000                   (X_U7.51)   99.3000                       

(X_U7.52)  -95.8520                   (X_U7.57)  100.0800                       

(X_U7.58)   -2.6774                   (X_U7.59)   15.8510                       

(X_U7.71)   15.8500                   (X_U7.72)   15.2030                       

(X_U7.73)   14.1270                   (X_U7.74)   13.6000                       

(X_U7.75)  -13.4000                   (X_U7.76)   15.0000                       

(X_U7.77)  -15.0000                   (X_U7.78)   13.4500                       

(X_U7.79)   13.4380                   (X_U7.81)   13.4380                       

(X_U7.86)   13.2870                   (X_U7.91)    0.0000                       

(X_U7.92)    0.0000                   (X_U7.93)     .6036                       

(X_U7.94)    2.9487                   (X_U7.95)  -13.3000                       

(X_U7.96)    2.9487                   (X_U7.97)   13.3000                       

(X_U7.98)    2.9487                   (X_U7.99)    2.9487                       

(X_U8.10)    0.0000                   (X_U8.11)   -2.3649                       

(X_U8.17)    0.0000                   (X_U8.18)   -4.8614                       

(X_U8.19)    -.0034                   (X_U8.21)   -1.2500                       

(X_U8.22)   28.7500                   (X_U8.23)   28.7500                       

(X_U8.24)    1.5235                   (X_U8.25)    1.0000                       

(X_U8.26)    1.0000                   (X_U8.27)     .7455                       

(X_U8.28)     .5459                   (X_U8.29)    0.0000                       

(X_U8.31)    4.2205                   (X_U8.32)    3.2205                       

(X_U8.33)    1.8905                   (X_U8.34)    1.0000                       

(X_U8.38)   -2.3649                   (X_U8.39)   -2.3649                       

(X_U8.40)   15.0000                   (X_U8.41)   -2.3648                       

(X_U8.42)   15.0000                   (X_U8.43)    0.0000                       

(X_U8.44)    0.0000                   (X_U8.45)    0.0000                       

(X_U8.50)  -15.0000                   (X_U8.51)   99.3000                       

(X_U8.52)  -95.8520                   (X_U8.57)  100.0700                       

(X_U8.58)   -2.6770                   (X_U8.59)   15.8510                       

(X_U8.71)   15.8500                   (X_U8.72)   15.2030                       

(X_U8.73)   14.1300                   (X_U8.74)   13.6000                       

(X_U8.75)  -13.4000                   (X_U8.76)   15.0000                       

(X_U8.77)  -15.0000                   (X_U8.78)   13.5510                       

(X_U8.79)   13.5500                   (X_U8.81)   13.5500                       

(X_U8.86)   13.5430                   (X_U8.91)    0.0000                       

(X_U8.92)    0.0000                   (X_U8.93)     .5042                       

(X_U8.94)   -2.3649                   (X_U8.95)  -13.3000                       

(X_U8.96)   -2.3649                   (X_U8.97)   13.3000                       

(X_U8.98)   -2.3649                   (X_U8.99)   -2.3649                       

(X_U13.10)    0.0000                  (X_U13.11)    6.7543                      

(X_U13.17)    0.0000                  (X_U13.18)    6.9462                      

(X_U13.19)    6.9484                  (X_U13.21)   -1.2500                      

(X_U13.22)   28.7500                  (X_U13.23)   28.7500                      

(X_U13.24)    1.5235                  (X_U13.25)    1.0000                      

(X_U13.26)    1.0000                  (X_U13.27)     .7455                      

(X_U13.28)     .5459                  (X_U13.29)    0.0000                      

(X_U13.31)    4.2205                  (X_U13.32)    3.2205                      

(X_U13.33)    1.8905                  (X_U13.34)    1.0000                      

(X_U13.38)    6.7543                  (X_U13.39)    6.7543                      

(X_U13.40)   15.0000                  (X_U13.41)    6.7542                      

(X_U13.42)   15.0000                  (X_U13.43)    0.0000                      

(X_U13.44)    0.0000                  (X_U13.45)    0.0000                      

(X_U13.50)  -15.0000                  (X_U13.51)   99.3000                      

(X_U13.52)  -95.8520                  (X_U13.57)     .0264                      

(X_U13.58)-706.6E-06                  (X_U13.59)    7.0657                      

(X_U13.71)    7.0657                  (X_U13.72)    6.4204                      

(X_U13.73)    7.7101                  (X_U13.74)   13.6000                      

(X_U13.75)  -13.4000                  (X_U13.76)   15.0000                      

(X_U13.77)  -15.0000                  (X_U13.78)    7.0437                      

(X_U13.79)    7.0335                  (X_U13.81)    7.0351                      

(X_U13.86)    6.9482                  (X_U13.91)    0.0000                      

(X_U13.92)    0.0000                  (X_U13.93)     .5858                      

(X_U13.94)    6.7543                  (X_U13.95)  -13.3000                      

(X_U13.96)    6.7543                  (X_U13.97)   13.3000                      

(X_U13.98)    6.7543                  (X_U13.99)    6.7543                      

(X_U5.120)    2.0000                  (X_U5.121)    1.0000                      

(X_U5.122)     .9984                  (X_U5.710)  -13.9470                      

(X_U5.720)   -2.3665                  (X_U7.120)    2.0000                      

(X_U7.121)    1.0000                  (X_U7.122)     .9984                      

(X_U7.710)   15.8500                  (X_U7.720)   15.3210                      

(X_U8.120)    2.0000                  (X_U8.121)    1.0000                      

(X_U8.122)     .9984                  (X_U8.710)   15.8500                      

(X_U8.720)   15.3210                  (X_U13.120)    2.0000                     

(X_U13.121)    1.0000                 (X_U13.122)     .9984                     

(X_U13.710)    7.1818                 (X_U13.720)    6.5372                 




    VOLTAGE SOURCE CURRENTS
    NAME         CURRENT

    V_V2         1.461E-01
    V_V1        -4.604E-02
    X_U7.VOFF   -1.123E-10
    X_U7.VSENS1   1.000E-03
    X_U7.VTEMP   2.012E-06
    X_U7.VCMX    2.949E-06
    X_U7.VPSX    0.000E+00
    X_U7.VCXX   -5.897E-12
    X_U7.VOOP    1.199E-02
    X_U7.VOON    2.844E-05
    X_U7.VOX     1.208E-02
    X_U7.VFX1    1.208E-02
    X_U7.VFX2   -8.570E-11
    X_U8.VOFF   -1.123E-10
    X_U8.VSENS1   1.000E-03
    X_U8.VTEMP   2.012E-06
    X_U8.VCMX   -2.365E-06
    X_U8.VPSX    0.000E+00
    X_U8.VCXX    4.730E-12
    X_U8.VOOP    5.722E-04
    X_U8.VOON    2.855E-05
    X_U8.VOX     5.494E-04
    X_U8.VFX1    5.494E-04
    X_U8.VFX2   -8.560E-11
    X_U5.VOFF   -1.123E-10
    X_U5.VSENS1   1.000E-03
    X_U5.VTEMP   2.012E-06
    X_U5.VCMX   -2.061E-09
    X_U5.VPSX    0.000E+00
    X_U5.VCXX    4.122E-15
    X_U5.VOOP    1.650E-07
    X_U5.VOON    1.185E-01
    X_U5.VOX    -1.196E-01
    X_U5.VFX1   -8.577E-11
    X_U5.VFX2    1.196E-01
    X_U13.VOFF  -1.123E-10
    X_U13.VSENS1   1.000E-03
    X_U13.VTEMP   2.012E-06
    X_U13.VCMX   6.754E-06
    X_U13.VPSX   0.000E+00
    X_U13.VCXX  -1.351E-11
    X_U13.VOOP   8.525E-03
    X_U13.VOON   1.643E-03
    X_U13.VOX    6.950E-03
    X_U13.VFX1   6.950E-03
    X_U13.VFX2  -8.568E-11

    TOTAL POWER DISSIPATION   2.88E+00  WATTS



          JOB CONCLUDED

**** 05/19/25 08:26:07 **** PSpice 24.1.0 (23 January 2025) *** ID# 0 ********

 ** Profile: "SCHEMATIC1-worst"  [ d:\facultate\an 2\semestru 2\cad\proiectul meu_pwm\proiectcad-pspicefiles\schematic1\worst.sim ] 


 ****     JOB STATISTICS SUMMARY


******************************************************************************



  Total job time (using Solver 1)   =        3.74
