
**** 05/19/25 01:02:59 **** PSpice 24.1.0 (23 January 2025) *** ID# 0 ********

 ** Profile: "SCHEMATIC1-monte"  [ d:\facultate\an 2\semestru 2\cad\proiectul meu_pwm\proiectcad-pspicefiles\schematic1\monte.sim ] 


 ****     CIRCUIT DESCRIPTION


******************************************************************************




** Creating circuit file "monte.cir" 
** WARNING: THIS AUTOMATICALLY GENERATED FILE MAY BE OVERWRITTEN BY SUBSEQUENT SIMULATIONS

*Libraries: 
* Profile Libraries :
* Local Libraries :
* From [PSPICE NETLIST] section of C:\Users\user\AppData\Roaming\SPB_Data\cdssetup\OrCAD_PSpice\24.1.0\PSpice.ini file:
.lib "nom.lib" 

*Analysis directives: 
.TRAN  0 300u 0 10u 
.MC 5 TRAN V([OUT]) YMAX OUTPUT ALL SEED=200 
.OPTIONS ADVCONV
.PROBE64 V(alias(*)) I(alias(*)) W(alias(*)) D(alias(*)) NOISE(alias(*)) 
.INC "..\SCHEMATIC1.net" 



**** INCLUDING SCHEMATIC1.net ****
* source PROIECTCAD
V_V2         -VCC 0 -15V
R_R3         N65354 N27903 R_R3 16k  
.model        R_R3 RES R=1 DEV=5%
X_P1    N28519 N28363 N34705 SCHEMATIC1_P1 
X_U7         N56026 0 VCC -VCC N27745 LM7171A/NS
D_D1         N27789 N27903 D1N4448 
R_R5         VCC N28363 R_R5 33k  
.model        R_R5 RES R=1 DEV=5%
D_D2         N28115 N27789 D1N4448 
R_R2         N56026 N27745 R_R2 13k  
.model        R_R2 RES R=1 DEV=5%
R_R4         N27745 N28115 R_R4 1.1k  
.model        R_R4 RES R=1 DEV=5%
R_R7         N30840 N56018 R_R7 12k  
.model        R_R7 RES R=1 DEV=5%
V_V1         VCC 0 15V
C_C1         N27789 N27803 C_C1 1n IC=0 
.model        C_C1 CAP C=1 DEV=10%
R_R6         N28519 -VCC R_R6 22k  
.model        R_R6 RES R=1 DEV=5%
R_R1         N27803 N56026 R_R1 11k  
.model        R_R1 RES R=1 DEV=5%
X_P2    N30840 N30576 N28413 SCHEMATIC1_P2 
X_U8         N27803 N34705 VCC -VCC N56018 LM7171A/NS
R_R8         0 N30576 R_R8 2.7k  
.model        R_R8 RES R=1 DEV=5%
X_U5         0 N27789 VCC -VCC N27803 LM7171A/NS
X_U13         N28413 OUT VCC -VCC OUT LM7171A/NS
R_R19         0 OUT R_R19 1k  
.model        R_R19 RES R=1 DEV=5%
R_R20         N27745 N65354  1.5k TC=0,0 
.IC         V(N27789 )=0
.PARAM  setfu=0 seta=0

.subckt SCHEMATIC1_P1 1 2 t  
RT_P1         1 t {(10k*(1-{setfu}))+.001}
RB_P1         t 2 {(10k*{setfu})+.001}
.ends SCHEMATIC1_P1

.subckt SCHEMATIC1_P2 1 2 t  
RT_P2         1 t {(10K*(1-{seta}))+.001}
RB_P2         t 2 {(10K*{seta})+.001}
.ends SCHEMATIC1_P2

**** RESUMING monte.cir ****
.END

**** 05/19/25 01:02:59 **** PSpice 24.1.0 (23 January 2025) *** ID# 0 ********

 ** Profile: "SCHEMATIC1-monte"  [ d:\facultate\an 2\semestru 2\cad\proiectul meu_pwm\proiectcad-pspicefiles\schematic1\monte.sim ] 


 ****     Diode MODEL PARAMETERS


******************************************************************************




               D1N4448         X_U7.DMOD1      X_U7.DMOD2      X_U8.DMOD1      
          IS    2.681000E-09   10.000000E-15   10.000000E-18   10.000000E-15 
           N    1.835                                                        
         ISR    1.566000E-09                                                 
         IKF     .03482                                                      
          BV  100                                                            
         IBV  100.000000E-06                                                 
          RS     .5142                                                       
          TT   11.540000E-09                                                 
         CJO    4.000000E-12                                                 
          VJ     .5                                                          
           M     .3333                                                       


               X_U8.DMOD2      X_U5.DMOD1      X_U5.DMOD2      X_U13.DMOD1     
          IS   10.000000E-18   10.000000E-15   10.000000E-18   10.000000E-15 


               X_U13.DMOD2     
          IS   10.000000E-18 


**** 05/19/25 01:02:59 **** PSpice 24.1.0 (23 January 2025) *** ID# 0 ********

 ** Profile: "SCHEMATIC1-monte"  [ d:\facultate\an 2\semestru 2\cad\proiectul meu_pwm\proiectcad-pspicefiles\schematic1\monte.sim ] 


 ****     BJT MODEL PARAMETERS


******************************************************************************




               X_U7.NPN1       X_U7.PNP1       X_U8.NPN1       X_U8.PNP1       
               NPN             PNP             NPN             PNP             
       LEVEL    1               1               1               1            
          IS    1.000000E-15    1.000000E-15    1.000000E-15    1.000000E-15 
          BF  100             100             100             100            
          NF    1               1               1               1            
          BR    1               1               1               1            
          NR    1               1               1               1            
         ISS    0               0               0               0            
          RE    0               0               0               0            
          RC    0               0               0               0            
         CJE    0               0               0               0            
         VJE     .75             .75             .75             .75         
         CJC    0               0               0               0            
         VJC     .75             .75             .75             .75         
         MJC     .33             .33             .33             .33         
        XCJC    1               1               1               1            
         CJS    0               0               0               0            
         VJS     .75             .75             .75             .75         
          KF    0               0               0               0            
          AF    1               1               1               1            
          CN    2.42            2.2             2.42            2.2          
           D     .87             .52             .87             .52         


               X_U5.NPN1       X_U5.PNP1       X_U13.NPN1      X_U13.PNP1      
               NPN             PNP             NPN             PNP             
       LEVEL    1               1               1               1            
          IS    1.000000E-15    1.000000E-15    1.000000E-15    1.000000E-15 
          BF  100             100             100             100            
          NF    1               1               1               1            
          BR    1               1               1               1            
          NR    1               1               1               1            
         ISS    0               0               0               0            
          RE    0               0               0               0            
          RC    0               0               0               0            
         CJE    0               0               0               0            
         VJE     .75             .75             .75             .75         
         CJC    0               0               0               0            
         VJC     .75             .75             .75             .75         
         MJC     .33             .33             .33             .33         
        XCJC    1               1               1               1            
         CJS    0               0               0               0            
         VJS     .75             .75             .75             .75         
          KF    0               0               0               0            
          AF    1               1               1               1            
          CN    2.42            2.2             2.42            2.2          
           D     .87             .52             .87             .52         


**** 05/19/25 01:02:59 **** PSpice 24.1.0 (23 January 2025) *** ID# 0 ********

 ** Profile: "SCHEMATIC1-monte"  [ d:\facultate\an 2\semestru 2\cad\proiectul meu_pwm\proiectcad-pspicefiles\schematic1\monte.sim ] 


 ****     Resistor MODEL PARAMETERS


******************************************************************************




               R_R3            R_R5            R_R2            R_R4            
           R    1               1               1               1            


               R_R7            R_R6            R_R1            R_R8            
           R    1               1               1               1            


               R_R19           X_U7.MRAX       X_U7.MRIB       X_U7.MRISC      
           R    1               1               1               1            
         TC1                  -70.000000E-06    4.520560E-03   -1.500000E-03 


               X_U8.MRAX       X_U8.MRIB       X_U8.MRISC      X_U5.MRAX       
           R    1               1               1               1            
         TC1  -70.000000E-06    4.520560E-03   -1.500000E-03  -70.000000E-06 


               X_U5.MRIB       X_U5.MRISC      X_U13.MRAX      X_U13.MRIB      
           R    1               1               1               1            
         TC1    4.520560E-03   -1.500000E-03  -70.000000E-06    4.520560E-03 


               X_U13.MRISC     
           R    1            
         TC1   -1.500000E-03 


**** 05/19/25 01:02:59 **** PSpice 24.1.0 (23 January 2025) *** ID# 0 ********

 ** Profile: "SCHEMATIC1-monte"  [ d:\facultate\an 2\semestru 2\cad\proiectul meu_pwm\proiectcad-pspicefiles\schematic1\monte.sim ] 


 ****     Capacitor MODEL PARAMETERS


******************************************************************************




               C_C1            
           C    1            


**** 05/19/25 01:02:59 **** PSpice 24.1.0 (23 January 2025) *** ID# 0 ********

 ** Profile: "SCHEMATIC1-monte"  [ d:\facultate\an 2\semestru 2\cad\proiectul meu_pwm\proiectcad-pspicefiles\schematic1\monte.sim ] 


 ****     INITIAL TRANSIENT SOLUTION       TEMPERATURE =   27.000 DEG C

                      MONTE CARLO NOMINAL

******************************************************************************



 NODE   VOLTAGE     NODE   VOLTAGE     NODE   VOLTAGE     NODE   VOLTAGE


(  OUT)    1.4752  (  VCC)   15.0000  ( -VCC)  -15.0000  (N27745)   13.3210     

(N27789) 306.8E-06 (N27803) 590.6E-06 (N27903)   13.3210 (N28115)     .7310     

(N28363)    -.2780 (N28413)    1.4744 (N28519)   -4.8786 (N30576)    1.4744     

(N30840)    6.9661 (N34705)    -.2780 (N56018)   13.5560 (N56026)    6.0799     

(N65354)   13.3210 (X_U5.10)    0.0000                   (X_U5.11)    -.0028    

(X_U5.17)    0.0000                   (X_U5.18)    -.0027                       

(X_U5.19)    -.0031                   (X_U5.21)   -1.2500                       

(X_U5.22)   28.7500                   (X_U5.23)   28.7500                       

(X_U5.24)    1.6551                   (X_U5.25)    1.0000                       

(X_U5.26)    1.0000                   (X_U5.27)     .8337                       

(X_U5.28)     .6836                   (X_U5.29)    0.0000                       

(X_U5.31)    4.0000                   (X_U5.32)    3.0000                       

(X_U5.33)    2.0000                   (X_U5.34)    1.0000                       

(X_U5.38)    -.0028                   (X_U5.39)    -.0028                       

(X_U5.40)   15.0000                   (X_U5.41)    -.0028                       

(X_U5.42)   15.0000                   (X_U5.43)    0.0000                       

(X_U5.44)    0.0000                   (X_U5.45)    0.0000                       

(X_U5.50)  -15.0000                   (X_U5.51)   99.3000                       

(X_U5.52)  -95.8520                   (X_U5.57)     .0236                       

(X_U5.58)-632.4E-06                   (X_U5.59)    6.3235                       

(X_U5.71)    6.3222                   (X_U5.72)    5.5267                       

(X_U5.73)    2.7517                   (X_U5.74)   13.6000                       

(X_U5.75)  -13.4000                   (X_U5.76)   15.0000                       

(X_U5.77)  -15.0000                   (X_U5.78)    1.9093                       

(X_U5.79)    1.7679                   (X_U5.81)    1.7679                       

(X_U5.86) 590.6E-06                   (X_U5.91)    0.0000                       

(X_U5.92)    0.0000                   (X_U5.93)     .7832                       

(X_U5.94)    -.0028                   (X_U5.95)  -13.3000                       

(X_U5.96)    -.0028                   (X_U5.97)   13.3000                       

(X_U5.98)    -.0028                   (X_U5.99)    -.0028                       

(X_U7.10)    0.0000                   (X_U7.11)    2.9526                       

(X_U7.17)    0.0000                   (X_U7.18)    -.0018                       

(X_U7.19)    6.0756                   (X_U7.21)   -1.2500                       

(X_U7.22)   28.7500                   (X_U7.23)   28.7500                       

(X_U7.24)    1.6551                   (X_U7.25)    1.0000                       

(X_U7.26)    1.0000                   (X_U7.27)     .8337                       

(X_U7.28)     .6836                   (X_U7.29)    0.0000                       

(X_U7.31)    4.0000                   (X_U7.32)    3.0000                       

(X_U7.33)    2.0000                   (X_U7.34)    1.0000                       

(X_U7.38)    2.9526                   (X_U7.39)    2.9526                       

(X_U7.40)   15.0000                   (X_U7.41)    2.9525                       

(X_U7.42)   15.0000                   (X_U7.43)    0.0000                       

(X_U7.44)    0.0000                   (X_U7.45)    0.0000                       

(X_U7.50)  -15.0000                   (X_U7.51)   99.3000                       

(X_U7.52)  -95.8520                   (X_U7.57)  100.1700                       

(X_U7.58)   -2.6795                   (X_U7.59)   15.9190                       

(X_U7.71)   15.9170                   (X_U7.72)   15.1220                       

(X_U7.73)   14.2620                   (X_U7.74)   13.6000                       

(X_U7.75)  -13.4000                   (X_U7.76)   15.0000                       

(X_U7.77)  -15.0000                   (X_U7.78)   13.4830                       

(X_U7.79)   13.4710                   (X_U7.81)   13.4710                       

(X_U7.86)   13.3210                   (X_U7.91)    0.0000                       

(X_U7.92)    0.0000                   (X_U7.93)     .7194                       

(X_U7.94)    2.9526                   (X_U7.95)  -13.3000                       

(X_U7.96)    2.9526                   (X_U7.97)   13.3000                       

(X_U7.98)    2.9526                   (X_U7.99)    2.9526                       

(X_U8.10)    0.0000                   (X_U8.11)    -.1378                       

(X_U8.17)    0.0000                   (X_U8.18)    -.2809                       

(X_U8.19)    -.0025                   (X_U8.21)   -1.2500                       

(X_U8.22)   28.7500                   (X_U8.23)   28.7500                       

(X_U8.24)    1.6551                   (X_U8.25)    1.0000                       

(X_U8.26)    1.0000                   (X_U8.27)     .8337                       

(X_U8.28)     .6836                   (X_U8.29)    0.0000                       

(X_U8.31)    4.0000                   (X_U8.32)    3.0000                       

(X_U8.33)    2.0000                   (X_U8.34)    1.0000                       

(X_U8.38)    -.1378                   (X_U8.39)    -.1378                       

(X_U8.40)   15.0000                   (X_U8.41)    -.1378                       

(X_U8.42)   15.0000                   (X_U8.43)    0.0000                       

(X_U8.44)    0.0000                   (X_U8.45)    0.0000                       

(X_U8.50)  -15.0000                   (X_U8.51)   99.3000                       

(X_U8.52)  -95.8520                   (X_U8.57)   10.4490                       

(X_U8.58)    -.2795                   (X_U8.59)   15.8600                       

(X_U8.71)   15.8590                   (X_U8.72)   15.0630                       

(X_U8.73)   14.2640                   (X_U8.74)   13.6000                       

(X_U8.75)  -13.4000                   (X_U8.76)   15.0000                       

(X_U8.77)  -15.0000                   (X_U8.78)   13.5630                       

(X_U8.79)   13.5630                   (X_U8.81)   13.5630                       

(X_U8.86)   13.5560                   (X_U8.91)    0.0000                       

(X_U8.92)    0.0000                   (X_U8.93)     .6396                       

(X_U8.94)    -.1378                   (X_U8.95)  -13.3000                       

(X_U8.96)    -.1378                   (X_U8.97)   13.3000                       

(X_U8.98)    -.1378                   (X_U8.99)    -.1378                       

(X_U13.10)    0.0000                  (X_U13.11)    1.4309                      

(X_U13.17)    0.0000                  (X_U13.18)    1.4722                      

(X_U13.19)    1.4713                  (X_U13.21)   -1.2500                      

(X_U13.22)   28.7500                  (X_U13.23)   28.7500                      

(X_U13.24)    1.6551                  (X_U13.25)    1.0000                      

(X_U13.26)    1.0000                  (X_U13.27)     .8337                      

(X_U13.28)     .6836                  (X_U13.29)    0.0000                      

(X_U13.31)    4.0000                  (X_U13.32)    3.0000                      

(X_U13.33)    2.0000                  (X_U13.34)    1.0000                      

(X_U13.38)    1.4309                  (X_U13.39)    1.4309                      

(X_U13.40)   15.0000                  (X_U13.41)    1.4309                      

(X_U13.42)   15.0000                  (X_U13.43)    0.0000                      

(X_U13.44)    0.0000                  (X_U13.45)    0.0000                      

(X_U13.50)  -15.0000                  (X_U13.51)   99.3000                      

(X_U13.52)  -95.8520                  (X_U13.57)     .0056                      

(X_U13.58)-149.3E-06                  (X_U13.59)    1.4929                      

(X_U13.71)    1.4929                  (X_U13.72)     .7094                      

(X_U13.73)    2.2830                  (X_U13.74)   13.6000                      

(X_U13.75)  -13.4000                  (X_U13.76)   15.0000                      

(X_U13.77)  -15.0000                  (X_U13.78)    1.5053                      

(X_U13.79)    1.4836                  (X_U13.81)    1.4937                      

(X_U13.86)    1.4752                  (X_U13.91)    0.0000                      

(X_U13.92)    0.0000                  (X_U13.93)     .6652                      

(X_U13.94)    1.4309                  (X_U13.95)  -13.3000                      

(X_U13.96)    1.4309                  (X_U13.97)   13.3000                      

(X_U13.98)    1.4309                  (X_U13.99)    1.4309                      

(X_U5.120)    2.0000                  (X_U5.121)    1.0000                      

(X_U5.122)    1.0009                  (X_U5.710)    6.3222                      

(X_U5.720)    5.6597                  (X_U7.120)    2.0000                      

(X_U7.121)    1.0000                  (X_U7.122)    1.0009                      

(X_U7.710)   15.9170                  (X_U7.720)   15.2550                      

(X_U8.120)    2.0000                  (X_U8.121)    1.0000                      

(X_U8.122)    1.0009                  (X_U8.710)   15.8590                      

(X_U8.720)   15.1960                  (X_U13.120)    2.0000                     

(X_U13.121)    1.0000                 (X_U13.122)    1.0009                     

(X_U13.710)    1.6214                 (X_U13.720)     .8325                 




    VOLTAGE SOURCE CURRENTS
    NAME         CURRENT

    V_V2         2.648E-02
    V_V1        -1.819E-01
    X_U7.VOFF   -2.710E-11
    X_U7.VSENS1   1.000E-03
    X_U7.VTEMP   3.014E-06
    X_U7.VCMX    2.953E-06
    X_U7.VPSX    0.000E+00
    X_U7.VCXX   -5.905E-12
    X_U7.VOOP    1.191E-02
    X_U7.VOON    2.847E-05
    X_U7.VOX     1.200E-02
    X_U7.VFX1    1.200E-02
    X_U7.VFX2   -7.294E-13
    X_U8.VOFF   -2.710E-11
    X_U8.VSENS1   1.000E-03
    X_U8.VTEMP   3.014E-06
    X_U8.VCMX   -1.378E-07
    X_U8.VPSX    0.000E+00
    X_U8.VCXX    2.756E-13
    X_U8.VOOP    5.720E-04
    X_U8.VOON    2.856E-05
    X_U8.VOX     5.492E-04
    X_U8.VFX1    5.492E-04
    X_U8.VFX2   -6.496E-13
    X_U5.VOFF   -2.710E-11
    X_U5.VSENS1   1.000E-03
    X_U5.VTEMP   3.014E-06
    X_U5.VCMX   -2.781E-09
    X_U5.VPSX    0.000E+00
    X_U5.VCXX    5.562E-15
    X_U5.VOOP    1.400E-01
    X_U5.VOON    1.677E-05
    X_U5.VOX     1.414E-01
    X_U5.VFX1    1.414E-01
    X_U5.VFX2   -7.932E-13
    X_U13.VOFF  -2.710E-11
    X_U13.VSENS1   1.000E-03
    X_U13.VTEMP   3.014E-06
    X_U13.VCMX   1.431E-06
    X_U13.VPSX   0.000E+00
    X_U13.VCXX  -2.862E-12
    X_U13.VOOP   1.147E-02
    X_U13.VOON   1.000E-02
    X_U13.VOX    1.478E-03
    X_U13.VFX1   1.478E-03
    X_U13.VFX2  -6.752E-13

    TOTAL POWER DISSIPATION   3.13E+00  WATTS


**** 05/19/25 01:02:59 **** PSpice 24.1.0 (23 January 2025) *** ID# 0 ********

 ** Profile: "SCHEMATIC1-monte"  [ d:\facultate\an 2\semestru 2\cad\proiectul meu_pwm\proiectcad-pspicefiles\schematic1\monte.sim ] 


 ****     INITIAL TRANSIENT SOLUTION       TEMPERATURE =   27.000 DEG C

                      MONTE CARLO PASS 2

******************************************************************************



 NODE   VOLTAGE     NODE   VOLTAGE     NODE   VOLTAGE     NODE   VOLTAGE


(  OUT)    1.4945  (  VCC)   15.0000  ( -VCC)  -15.0000  (N27745)   13.3130     

(N27789) 307.7E-06 (N27803) 591.6E-06 (N27903)   13.3130 (N28115)     .7335     

(N28363)    -.1466 (N28413)    1.4937 (N28519)   -4.6566 (N30576)    1.4937     

(N30840)    7.0220 (N34705)    -.1466 (N56018)   13.5560 (N56026)    5.8294     

(N65354)   13.3130 (X_U5.10)    0.0000                   (X_U5.11)    -.0028    

(X_U5.17)    0.0000                   (X_U5.18)    -.0027                       

(X_U5.19)    -.0031                   (X_U5.21)   -1.2500                       

(X_U5.22)   28.7500                   (X_U5.23)   28.7500                       

(X_U5.24)    1.6551                   (X_U5.25)    1.0000                       

(X_U5.26)    1.0000                   (X_U5.27)     .8337                       

(X_U5.28)     .6836                   (X_U5.29)    0.0000                       

(X_U5.31)    4.0000                   (X_U5.32)    3.0000                       

(X_U5.33)    2.0000                   (X_U5.34)    1.0000                       

(X_U5.38)    -.0028                   (X_U5.39)    -.0028                       

(X_U5.40)   15.0000                   (X_U5.41)    -.0028                       

(X_U5.42)   15.0000                   (X_U5.43)    0.0000                       

(X_U5.44)    0.0000                   (X_U5.45)    0.0000                       

(X_U5.50)  -15.0000                   (X_U5.51)   99.3000                       

(X_U5.52)  -95.8520                   (X_U5.57)     .0236                       

(X_U5.58)-631.4E-06                   (X_U5.59)    6.3140                       

(X_U5.71)    6.3127                   (X_U5.72)    5.5172                       

(X_U5.73)    2.7517                   (X_U5.74)   13.6000                       

(X_U5.75)  -13.4000                   (X_U5.76)   15.0000                       

(X_U5.77)  -15.0000                   (X_U5.78)    1.9093                       

(X_U5.79)    1.7679                   (X_U5.81)    1.7679                       

(X_U5.86) 591.6E-06                   (X_U5.91)    0.0000                       

(X_U5.92)    0.0000                   (X_U5.93)     .7832                       

(X_U5.94)    -.0028                   (X_U5.95)  -13.3000                       

(X_U5.96)    -.0028                   (X_U5.97)   13.3000                       

(X_U5.98)    -.0028                   (X_U5.99)    -.0028                       

(X_U7.10)    0.0000                   (X_U7.11)    2.8308                       

(X_U7.17)    0.0000                   (X_U7.18)    -.0018                       

(X_U7.19)    5.8251                   (X_U7.21)   -1.2500                       

(X_U7.22)   28.7500                   (X_U7.23)   28.7500                       

(X_U7.24)    1.6551                   (X_U7.25)    1.0000                       

(X_U7.26)    1.0000                   (X_U7.27)     .8337                       

(X_U7.28)     .6836                   (X_U7.29)    0.0000                       

(X_U7.31)    4.0000                   (X_U7.32)    3.0000                       

(X_U7.33)    2.0000                   (X_U7.34)    1.0000                       

(X_U7.38)    2.8308                   (X_U7.39)    2.8308                       

(X_U7.40)   15.0000                   (X_U7.41)    2.8307                       

(X_U7.42)   15.0000                   (X_U7.43)    0.0000                       

(X_U7.44)    0.0000                   (X_U7.45)    0.0000                       

(X_U7.50)  -15.0000                   (X_U7.51)   99.3000                       

(X_U7.52)  -95.8520                   (X_U7.57)  100.1600                       

(X_U7.58)   -2.6795                   (X_U7.59)   15.9190                       

(X_U7.71)   15.9170                   (X_U7.72)   15.1220                       

(X_U7.73)   14.2610                   (X_U7.74)   13.6000                       

(X_U7.75)  -13.4000                   (X_U7.76)   15.0000                       

(X_U7.77)  -15.0000                   (X_U7.78)   13.4820                       

(X_U7.79)   13.4690                   (X_U7.81)   13.4690                       

(X_U7.86)   13.3130                   (X_U7.91)    0.0000                       

(X_U7.92)    0.0000                   (X_U7.93)     .7204                       

(X_U7.94)    2.8308                   (X_U7.95)  -13.3000                       

(X_U7.96)    2.8308                   (X_U7.97)   13.3000                       

(X_U7.98)    2.8308                   (X_U7.99)    2.8308                       

(X_U8.10)    0.0000                   (X_U8.11)    -.0739                       

(X_U8.17)    0.0000                   (X_U8.18)    -.1496                       

(X_U8.19)    -.0025                   (X_U8.21)   -1.2500                       

(X_U8.22)   28.7500                   (X_U8.23)   28.7500                       

(X_U8.24)    1.6551                   (X_U8.25)    1.0000                       

(X_U8.26)    1.0000                   (X_U8.27)     .8337                       

(X_U8.28)     .6836                   (X_U8.29)    0.0000                       

(X_U8.31)    4.0000                   (X_U8.32)    3.0000                       

(X_U8.33)    2.0000                   (X_U8.34)    1.0000                       

(X_U8.38)    -.0739                   (X_U8.39)    -.0739                       

(X_U8.40)   15.0000                   (X_U8.41)    -.0739                       

(X_U8.42)   15.0000                   (X_U8.43)    0.0000                       

(X_U8.44)    0.0000                   (X_U8.45)    0.0000                       

(X_U8.50)  -15.0000                   (X_U8.51)   99.3000                       

(X_U8.52)  -95.8520                   (X_U8.57)    5.5384                       

(X_U8.58)    -.1482                   (X_U8.59)   15.8440                       

(X_U8.71)   15.8420                   (X_U8.72)   15.0470                       

(X_U8.73)   14.2640                   (X_U8.74)   13.6000                       

(X_U8.75)  -13.4000                   (X_U8.76)   15.0000                       

(X_U8.77)  -15.0000                   (X_U8.78)   13.5630                       

(X_U8.79)   13.5630                   (X_U8.81)   13.5630                       

(X_U8.86)   13.5560                   (X_U8.91)    0.0000                       

(X_U8.92)    0.0000                   (X_U8.93)     .6398                       

(X_U8.94)    -.0739                   (X_U8.95)  -13.3000                       

(X_U8.96)    -.0739                   (X_U8.97)   13.3000                       

(X_U8.98)    -.0739                   (X_U8.99)    -.0739                       

(X_U13.10)    0.0000                  (X_U13.11)    1.4497                      

(X_U13.17)    0.0000                  (X_U13.18)    1.4915                      

(X_U13.19)    1.4906                  (X_U13.21)   -1.2500                      

(X_U13.22)   28.7500                  (X_U13.23)   28.7500                      

(X_U13.24)    1.6551                  (X_U13.25)    1.0000                      

(X_U13.26)    1.0000                  (X_U13.27)     .8337                      

(X_U13.28)     .6836                  (X_U13.29)    0.0000                      

(X_U13.31)    4.0000                  (X_U13.32)    3.0000                      

(X_U13.33)    2.0000                  (X_U13.34)    1.0000                      

(X_U13.38)    1.4497                  (X_U13.39)    1.4497                      

(X_U13.40)   15.0000                  (X_U13.41)    1.4496                      

(X_U13.42)   15.0000                  (X_U13.43)    0.0000                      

(X_U13.44)    0.0000                  (X_U13.45)    0.0000                      

(X_U13.50)  -15.0000                  (X_U13.51)   99.3000                      

(X_U13.52)  -95.8520                  (X_U13.57)     .0057                      

(X_U13.58)-151.3E-06                  (X_U13.59)    1.5130                      

(X_U13.71)    1.5131                  (X_U13.72)     .7296                      

(X_U13.73)    2.3031                  (X_U13.74)   13.6000                      

(X_U13.75)  -13.4000                  (X_U13.76)   15.0000                      

(X_U13.77)  -15.0000                  (X_U13.78)    1.5253                      

(X_U13.79)    1.5037                  (X_U13.81)    1.5137                      

(X_U13.86)    1.4945                  (X_U13.91)    0.0000                      

(X_U13.92)    0.0000                  (X_U13.93)     .6662                      

(X_U13.94)    1.4497                  (X_U13.95)  -13.3000                      

(X_U13.96)    1.4497                  (X_U13.97)   13.3000                      

(X_U13.98)    1.4497                  (X_U13.99)    1.4497                      

(X_U5.120)    2.0000                  (X_U5.121)    1.0000                      

(X_U5.122)    1.0009                  (X_U5.710)    6.3127                      

(X_U5.720)    5.6502                  (X_U7.120)    2.0000                      

(X_U7.121)    1.0000                  (X_U7.122)    1.0009                      

(X_U7.710)   15.9170                  (X_U7.720)   15.2550                      

(X_U8.120)    2.0000                  (X_U8.121)    1.0000                      

(X_U8.122)    1.0009                  (X_U8.710)   15.8420                      

(X_U8.720)   15.1800                  (X_U13.120)    2.0000                     

(X_U13.121)    1.0000                 (X_U13.122)    1.0009                     

(X_U13.710)    1.6416                 (X_U13.720)     .8526                 




    VOLTAGE SOURCE CURRENTS
    NAME         CURRENT

    V_V2         2.648E-02
    V_V1        -1.824E-01
    X_U7.VOFF   -2.710E-11
    X_U7.VSENS1   1.000E-03
    X_U7.VTEMP   3.014E-06
    X_U7.VCMX    2.831E-06
    X_U7.VPSX    0.000E+00
    X_U7.VCXX   -5.662E-12
    X_U7.VOOP    1.238E-02
    X_U7.VOON    2.847E-05
    X_U7.VOX     1.248E-02
    X_U7.VFX1    1.248E-02
    X_U7.VFX2   -7.304E-13
    X_U8.VOFF   -2.710E-11
    X_U8.VSENS1   1.000E-03
    X_U8.VTEMP   3.014E-06
    X_U8.VCMX   -7.392E-08
    X_U8.VPSX    0.000E+00
    X_U8.VCXX    1.478E-13
    X_U8.VOOP    5.756E-04
    X_U8.VOON    2.856E-05
    X_U8.VOX     5.528E-04
    X_U8.VFX1    5.528E-04
    X_U8.VFX2   -6.498E-13
    X_U5.VOFF   -2.710E-11
    X_U5.VSENS1   1.000E-03
    X_U5.VTEMP   3.014E-06
    X_U5.VCMX   -2.781E-09
    X_U5.VPSX    0.000E+00
    X_U5.VCXX    5.561E-15
    X_U5.VOOP    1.400E-01
    X_U5.VOON    1.677E-05
    X_U5.VOX     1.414E-01
    X_U5.VFX1    1.414E-01
    X_U5.VFX2   -7.932E-13
    X_U13.VOFF  -2.710E-11
    X_U13.VSENS1   1.000E-03
    X_U13.VTEMP   3.014E-06
    X_U13.VCMX   1.450E-06
    X_U13.VPSX   0.000E+00
    X_U13.VCXX  -2.899E-12
    X_U13.VOOP   1.150E-02
    X_U13.VOON   9.976E-03
    X_U13.VOX    1.537E-03
    X_U13.VFX1   1.537E-03
    X_U13.VFX2  -6.762E-13

    TOTAL POWER DISSIPATION   3.13E+00  WATTS


**** 05/19/25 01:02:59 **** PSpice 24.1.0 (23 January 2025) *** ID# 0 ********

 ** Profile: "SCHEMATIC1-monte"  [ d:\facultate\an 2\semestru 2\cad\proiectul meu_pwm\proiectcad-pspicefiles\schematic1\monte.sim ] 


 ****     INITIAL TRANSIENT SOLUTION       TEMPERATURE =   27.000 DEG C

                      MONTE CARLO PASS 3

******************************************************************************



 NODE   VOLTAGE     NODE   VOLTAGE     NODE   VOLTAGE     NODE   VOLTAGE


(  OUT)    1.4084  (  VCC)   15.0000  ( -VCC)  -15.0000  (N27745)   13.3180     

(N27789) 307.1E-06 (N27803) 590.9E-06 (N27903)   13.3180 (N28115)     .7318     

(N28363)    -.0668 (N28413)    1.4076 (N28519)   -4.7667 (N30576)    1.4076     

(N30840)    6.8922 (N34705)    -.0668 (N56018)   13.5560 (N56026)    6.1500     

(N65354)   13.3180 (X_U5.10)    0.0000                   (X_U5.11)    -.0028    

(X_U5.17)    0.0000                   (X_U5.18)    -.0027                       

(X_U5.19)    -.0031                   (X_U5.21)   -1.2500                       

(X_U5.22)   28.7500                   (X_U5.23)   28.7500                       

(X_U5.24)    1.6551                   (X_U5.25)    1.0000                       

(X_U5.26)    1.0000                   (X_U5.27)     .8337                       

(X_U5.28)     .6836                   (X_U5.29)    0.0000                       

(X_U5.31)    4.0000                   (X_U5.32)    3.0000                       

(X_U5.33)    2.0000                   (X_U5.34)    1.0000                       

(X_U5.38)    -.0028                   (X_U5.39)    -.0028                       

(X_U5.40)   15.0000                   (X_U5.41)    -.0028                       

(X_U5.42)   15.0000                   (X_U5.43)    0.0000                       

(X_U5.44)    0.0000                   (X_U5.45)    0.0000                       

(X_U5.50)  -15.0000                   (X_U5.51)   99.3000                       

(X_U5.52)  -95.8520                   (X_U5.57)     .0236                       

(X_U5.58)-632.0E-06                   (X_U5.59)    6.3205                       

(X_U5.71)    6.3191                   (X_U5.72)    5.5237                       

(X_U5.73)    2.7517                   (X_U5.74)   13.6000                       

(X_U5.75)  -13.4000                   (X_U5.76)   15.0000                       

(X_U5.77)  -15.0000                   (X_U5.78)    1.9093                       

(X_U5.79)    1.7679                   (X_U5.81)    1.7679                       

(X_U5.86) 590.9E-06                   (X_U5.91)    0.0000                       

(X_U5.92)    0.0000                   (X_U5.93)     .7832                       

(X_U5.94)    -.0028                   (X_U5.95)  -13.3000                       

(X_U5.96)    -.0028                   (X_U5.97)   13.3000                       

(X_U5.98)    -.0028                   (X_U5.99)    -.0028                       

(X_U7.10)    0.0000                   (X_U7.11)    2.9866                       

(X_U7.17)    0.0000                   (X_U7.18)    -.0018                       

(X_U7.19)    6.1457                   (X_U7.21)   -1.2500                       

(X_U7.22)   28.7500                   (X_U7.23)   28.7500                       

(X_U7.24)    1.6551                   (X_U7.25)    1.0000                       

(X_U7.26)    1.0000                   (X_U7.27)     .8337                       

(X_U7.28)     .6836                   (X_U7.29)    0.0000                       

(X_U7.31)    4.0000                   (X_U7.32)    3.0000                       

(X_U7.33)    2.0000                   (X_U7.34)    1.0000                       

(X_U7.38)    2.9866                   (X_U7.39)    2.9866                       

(X_U7.40)   15.0000                   (X_U7.41)    2.9866                       

(X_U7.42)   15.0000                   (X_U7.43)    0.0000                       

(X_U7.44)    0.0000                   (X_U7.45)    0.0000                       

(X_U7.50)  -15.0000                   (X_U7.51)   99.3000                       

(X_U7.52)  -95.8520                   (X_U7.57)  100.1700                       

(X_U7.58)   -2.6796                   (X_U7.59)   15.9190                       

(X_U7.71)   15.9170                   (X_U7.72)   15.1220                       

(X_U7.73)   14.2610                   (X_U7.74)   13.6000                       

(X_U7.75)  -13.4000                   (X_U7.76)   15.0000                       

(X_U7.77)  -15.0000                   (X_U7.78)   13.4820                       

(X_U7.79)   13.4700                   (X_U7.81)   13.4700                       

(X_U7.86)   13.3180                   (X_U7.91)    0.0000                       

(X_U7.92)    0.0000                   (X_U7.93)     .7197                       

(X_U7.94)    2.9866                   (X_U7.95)  -13.3000                       

(X_U7.96)    2.9866                   (X_U7.97)   13.3000                       

(X_U7.98)    2.9866                   (X_U7.99)    2.9866                       

(X_U8.10)    0.0000                   (X_U8.11)    -.0351                       

(X_U8.17)    0.0000                   (X_U8.18)    -.0697                       

(X_U8.19)    -.0025                   (X_U8.21)   -1.2500                       

(X_U8.22)   28.7500                   (X_U8.23)   28.7500                       

(X_U8.24)    1.6551                   (X_U8.25)    1.0000                       

(X_U8.26)    1.0000                   (X_U8.27)     .8337                       

(X_U8.28)     .6836                   (X_U8.29)    0.0000                       

(X_U8.31)    4.0000                   (X_U8.32)    3.0000                       

(X_U8.33)    2.0000                   (X_U8.34)    1.0000                       

(X_U8.38)    -.0351                   (X_U8.39)    -.0351                       

(X_U8.40)   15.0000                   (X_U8.41)    -.0351                       

(X_U8.42)   15.0000                   (X_U8.43)    0.0000                       

(X_U8.44)    0.0000                   (X_U8.45)    0.0000                       

(X_U8.50)  -15.0000                   (X_U8.51)   99.3000                       

(X_U8.52)  -95.8520                   (X_U8.57)    2.5534                       

(X_U8.58)    -.0683                   (X_U8.59)   15.8230                       

(X_U8.71)   15.8220                   (X_U8.72)   15.0270                       

(X_U8.73)   14.2640                   (X_U8.74)   13.6000                       

(X_U8.75)  -13.4000                   (X_U8.76)   15.0000                       

(X_U8.77)  -15.0000                   (X_U8.78)   13.5640                       

(X_U8.79)   13.5630                   (X_U8.81)   13.5630                       

(X_U8.86)   13.5560                   (X_U8.91)    0.0000                       

(X_U8.92)    0.0000                   (X_U8.93)     .6396                       

(X_U8.94)    -.0351                   (X_U8.95)  -13.3000                       

(X_U8.96)    -.0351                   (X_U8.97)   13.3000                       

(X_U8.98)    -.0351                   (X_U8.99)    -.0351                       

(X_U13.10)    0.0000                  (X_U13.11)    1.3659                      

(X_U13.17)    0.0000                  (X_U13.18)    1.4054                      

(X_U13.19)    1.4045                  (X_U13.21)   -1.2500                      

(X_U13.22)   28.7500                  (X_U13.23)   28.7500                      

(X_U13.24)    1.6551                  (X_U13.25)    1.0000                      

(X_U13.26)    1.0000                  (X_U13.27)     .8337                      

(X_U13.28)     .6836                  (X_U13.29)    0.0000                      

(X_U13.31)    4.0000                  (X_U13.32)    3.0000                      

(X_U13.33)    2.0000                  (X_U13.34)    1.0000                      

(X_U13.38)    1.3659                  (X_U13.39)    1.3659                      

(X_U13.40)   15.0000                  (X_U13.41)    1.3659                      

(X_U13.42)   15.0000                  (X_U13.43)    0.0000                      

(X_U13.44)    0.0000                  (X_U13.45)    0.0000                      

(X_U13.50)  -15.0000                  (X_U13.51)   99.3000                      

(X_U13.52)  -95.8520                  (X_U13.57)     .0053                      

(X_U13.58)-142.5E-06                  (X_U13.59)    1.4245                      

(X_U13.71)    1.4246                  (X_U13.72)     .6412                      

(X_U13.73)    2.2148                  (X_U13.74)   13.6000                      

(X_U13.75)  -13.4000                  (X_U13.76)   15.0000                      

(X_U13.77)  -15.0000                  (X_U13.78)    1.4372                      

(X_U13.79)    1.4155                  (X_U13.81)    1.4256                      

(X_U13.86)    1.4084                  (X_U13.91)    0.0000                      

(X_U13.92)    0.0000                  (X_U13.93)     .6634                      

(X_U13.94)    1.3659                  (X_U13.95)  -13.3000                      

(X_U13.96)    1.3659                  (X_U13.97)   13.3000                      

(X_U13.98)    1.3659                  (X_U13.99)    1.3659                      

(X_U5.120)    2.0000                  (X_U5.121)    1.0000                      

(X_U5.122)    1.0009                  (X_U5.710)    6.3191                      

(X_U5.720)    5.6567                  (X_U7.120)    2.0000                      

(X_U7.121)    1.0000                  (X_U7.122)    1.0009                      

(X_U7.710)   15.9170                  (X_U7.720)   15.2550                      

(X_U8.120)    2.0000                  (X_U8.121)    1.0000                      

(X_U8.122)    1.0009                  (X_U8.710)   15.8220                      

(X_U8.720)   15.1600                  (X_U13.120)    2.0000                     

(X_U13.121)    1.0000                 (X_U13.122)    1.0009                     

(X_U13.710)    1.5532                 (X_U13.720)     .7642                 




    VOLTAGE SOURCE CURRENTS
    NAME         CURRENT

    V_V2         2.649E-02
    V_V1        -1.819E-01
    X_U7.VOFF   -2.710E-11
    X_U7.VSENS1   1.000E-03
    X_U7.VTEMP   3.014E-06
    X_U7.VCMX    2.987E-06
    X_U7.VPSX    0.000E+00
    X_U7.VCXX   -5.973E-12
    X_U7.VOOP    1.206E-02
    X_U7.VOON    2.847E-05
    X_U7.VOX     1.215E-02
    X_U7.VFX1    1.215E-02
    X_U7.VFX2   -7.297E-13
    X_U8.VOFF   -2.710E-11
    X_U8.VSENS1   1.000E-03
    X_U8.VTEMP   3.014E-06
    X_U8.VCMX   -3.510E-08
    X_U8.VPSX    0.000E+00
    X_U8.VCXX    7.021E-14
    X_U8.VOOP    5.713E-04
    X_U8.VOON    2.856E-05
    X_U8.VOX     5.485E-04
    X_U8.VFX1    5.485E-04
    X_U8.VFX2   -6.496E-13
    X_U5.VOFF   -2.710E-11
    X_U5.VSENS1   1.000E-03
    X_U5.VTEMP   3.014E-06
    X_U5.VCMX   -2.781E-09
    X_U5.VPSX    0.000E+00
    X_U5.VCXX    5.562E-15
    X_U5.VOOP    1.400E-01
    X_U5.VOON    1.677E-05
    X_U5.VOX     1.414E-01
    X_U5.VFX1    1.414E-01
    X_U5.VFX2   -7.932E-13
    X_U13.VOFF  -2.710E-11
    X_U13.VSENS1   1.000E-03
    X_U13.VTEMP   3.014E-06
    X_U13.VCMX   1.366E-06
    X_U13.VPSX   0.000E+00
    X_U13.VCXX  -2.732E-12
    X_U13.VOOP   1.142E-02
    X_U13.VOON   1.005E-02
    X_U13.VOX    1.381E-03
    X_U13.VFX1   1.381E-03
    X_U13.VFX2  -6.734E-13

    TOTAL POWER DISSIPATION   3.13E+00  WATTS


**** 05/19/25 01:02:59 **** PSpice 24.1.0 (23 January 2025) *** ID# 0 ********

 ** Profile: "SCHEMATIC1-monte"  [ d:\facultate\an 2\semestru 2\cad\proiectul meu_pwm\proiectcad-pspicefiles\schematic1\monte.sim ] 


 ****     INITIAL TRANSIENT SOLUTION       TEMPERATURE =   27.000 DEG C

                      MONTE CARLO PASS 4

******************************************************************************



 NODE   VOLTAGE     NODE   VOLTAGE     NODE   VOLTAGE     NODE   VOLTAGE


(  OUT)    1.4642  (  VCC)   15.0000  ( -VCC)  -15.0000  (N27745)   13.3290     

(N27789) 305.7E-06 (N27803) 589.5E-06 (N27903)   13.3290 (N28115)     .7284     

(N28363)    -.3758 (N28413)    1.4634 (N28519)   -4.9041 (N30576)    1.4634     

(N30840)    6.9209 (N34705)    -.3758 (N56018)   13.5560 (N56026)    5.9888     

(N65354)   13.3290 (X_U5.10)    0.0000                   (X_U5.11)    -.0028    

(X_U5.17)    0.0000                   (X_U5.18)    -.0027                       

(X_U5.19)    -.0031                   (X_U5.21)   -1.2500                       

(X_U5.22)   28.7500                   (X_U5.23)   28.7500                       

(X_U5.24)    1.6551                   (X_U5.25)    1.0000                       

(X_U5.26)    1.0000                   (X_U5.27)     .8337                       

(X_U5.28)     .6836                   (X_U5.29)    0.0000                       

(X_U5.31)    4.0000                   (X_U5.32)    3.0000                       

(X_U5.33)    2.0000                   (X_U5.34)    1.0000                       

(X_U5.38)    -.0028                   (X_U5.39)    -.0028                       

(X_U5.40)   15.0000                   (X_U5.41)    -.0028                       

(X_U5.42)   15.0000                   (X_U5.43)    0.0000                       

(X_U5.44)    0.0000                   (X_U5.45)    0.0000                       

(X_U5.50)  -15.0000                   (X_U5.51)   99.3000                       

(X_U5.52)  -95.8520                   (X_U5.57)     .0237                       

(X_U5.58)-633.4E-06                   (X_U5.59)    6.3340                       

(X_U5.71)    6.3327                   (X_U5.72)    5.5372                       

(X_U5.73)    2.7517                   (X_U5.74)   13.6000                       

(X_U5.75)  -13.4000                   (X_U5.76)   15.0000                       

(X_U5.77)  -15.0000                   (X_U5.78)    1.9093                       

(X_U5.79)    1.7679                   (X_U5.81)    1.7679                       

(X_U5.86) 589.5E-06                   (X_U5.91)    0.0000                       

(X_U5.92)    0.0000                   (X_U5.93)     .7832                       

(X_U5.94)    -.0028                   (X_U5.95)  -13.3000                       

(X_U5.96)    -.0028                   (X_U5.97)   13.3000                       

(X_U5.98)    -.0028                   (X_U5.99)    -.0028                       

(X_U7.10)    0.0000                   (X_U7.11)    2.9083                       

(X_U7.17)    0.0000                   (X_U7.18)    -.0018                       

(X_U7.19)    5.9845                   (X_U7.21)   -1.2500                       

(X_U7.22)   28.7500                   (X_U7.23)   28.7500                       

(X_U7.24)    1.6551                   (X_U7.25)    1.0000                       

(X_U7.26)    1.0000                   (X_U7.27)     .8337                       

(X_U7.28)     .6836                   (X_U7.29)    0.0000                       

(X_U7.31)    4.0000                   (X_U7.32)    3.0000                       

(X_U7.33)    2.0000                   (X_U7.34)    1.0000                       

(X_U7.38)    2.9083                   (X_U7.39)    2.9083                       

(X_U7.40)   15.0000                   (X_U7.41)    2.9082                       

(X_U7.42)   15.0000                   (X_U7.43)    0.0000                       

(X_U7.44)    0.0000                   (X_U7.45)    0.0000                       

(X_U7.50)  -15.0000                   (X_U7.51)   99.3000                       

(X_U7.52)  -95.8520                   (X_U7.57)  100.1600                       

(X_U7.58)   -2.6795                   (X_U7.59)   15.9190                       

(X_U7.71)   15.9170                   (X_U7.72)   15.1220                       

(X_U7.73)   14.2620                   (X_U7.74)   13.6000                       

(X_U7.75)  -13.4000                   (X_U7.76)   15.0000                       

(X_U7.77)  -15.0000                   (X_U7.78)   13.4840                       

(X_U7.79)   13.4730                   (X_U7.81)   13.4730                       

(X_U7.86)   13.3290                   (X_U7.91)    0.0000                       

(X_U7.92)    0.0000                   (X_U7.93)     .7182                       

(X_U7.94)    2.9083                   (X_U7.95)  -13.3000                       

(X_U7.96)    2.9083                   (X_U7.97)   13.3000                       

(X_U7.98)    2.9083                   (X_U7.99)    2.9083                       

(X_U8.10)    0.0000                   (X_U8.11)    -.1853                       

(X_U8.17)    0.0000                   (X_U8.18)    -.3787                       

(X_U8.19)    -.0025                   (X_U8.21)   -1.2500                       

(X_U8.22)   28.7500                   (X_U8.23)   28.7500                       

(X_U8.24)    1.6551                   (X_U8.25)    1.0000                       

(X_U8.26)    1.0000                   (X_U8.27)     .8337                       

(X_U8.28)     .6836                   (X_U8.29)    0.0000                       

(X_U8.31)    4.0000                   (X_U8.32)    3.0000                       

(X_U8.33)    2.0000                   (X_U8.34)    1.0000                       

(X_U8.38)    -.1853                   (X_U8.39)    -.1853                       

(X_U8.40)   15.0000                   (X_U8.41)    -.1853                       

(X_U8.42)   15.0000                   (X_U8.43)    0.0000                       

(X_U8.44)    0.0000                   (X_U8.45)    0.0000                       

(X_U8.50)  -15.0000                   (X_U8.51)   99.3000                       

(X_U8.52)  -95.8520                   (X_U8.57)   14.1040                       

(X_U8.58)    -.3773                   (X_U8.59)   15.8680                       

(X_U8.71)   15.8670                   (X_U8.72)   15.0710                       

(X_U8.73)   14.2640                   (X_U8.74)   13.6000                       

(X_U8.75)  -13.4000                   (X_U8.76)   15.0000                       

(X_U8.77)  -15.0000                   (X_U8.78)   13.5640                       

(X_U8.79)   13.5630                   (X_U8.81)   13.5630                       

(X_U8.86)   13.5560                   (X_U8.91)    0.0000                       

(X_U8.92)    0.0000                   (X_U8.93)     .6394                       

(X_U8.94)    -.1853                   (X_U8.95)  -13.3000                       

(X_U8.96)    -.1853                   (X_U8.97)   13.3000                       

(X_U8.98)    -.1853                   (X_U8.99)    -.1853                       

(X_U13.10)    0.0000                  (X_U13.11)    1.4202                      

(X_U13.17)    0.0000                  (X_U13.18)    1.4612                      

(X_U13.19)    1.4603                  (X_U13.21)   -1.2500                      

(X_U13.22)   28.7500                  (X_U13.23)   28.7500                      

(X_U13.24)    1.6551                  (X_U13.25)    1.0000                      

(X_U13.26)    1.0000                  (X_U13.27)     .8337                      

(X_U13.28)     .6836                  (X_U13.29)    0.0000                      

(X_U13.31)    4.0000                  (X_U13.32)    3.0000                      

(X_U13.33)    2.0000                  (X_U13.34)    1.0000                      

(X_U13.38)    1.4202                  (X_U13.39)    1.4202                      

(X_U13.40)   15.0000                  (X_U13.41)    1.4201                      

(X_U13.42)   15.0000                  (X_U13.43)    0.0000                      

(X_U13.44)    0.0000                  (X_U13.45)    0.0000                      

(X_U13.50)  -15.0000                  (X_U13.51)   99.3000                      

(X_U13.52)  -95.8520                  (X_U13.57)     .0055                      

(X_U13.58)-148.1E-06                  (X_U13.59)    1.4814                      

(X_U13.71)    1.4814                  (X_U13.72)     .6980                      

(X_U13.73)    2.2716                  (X_U13.74)   13.6000                      

(X_U13.75)  -13.4000                  (X_U13.76)   15.0000                      

(X_U13.77)  -15.0000                  (X_U13.78)    1.4938                      

(X_U13.79)    1.4722                  (X_U13.81)    1.4823                      

(X_U13.86)    1.4642                  (X_U13.91)    0.0000                      

(X_U13.92)    0.0000                  (X_U13.93)     .6647                      

(X_U13.94)    1.4202                  (X_U13.95)  -13.3000                      

(X_U13.96)    1.4202                  (X_U13.97)   13.3000                      

(X_U13.98)    1.4202                  (X_U13.99)    1.4202                      

(X_U5.120)    2.0000                  (X_U5.121)    1.0000                      

(X_U5.122)    1.0009                  (X_U5.710)    6.3327                      

(X_U5.720)    5.6702                  (X_U7.120)    2.0000                      

(X_U7.121)    1.0000                  (X_U7.122)    1.0009                      

(X_U7.710)   15.9170                  (X_U7.720)   15.2550                      

(X_U8.120)    2.0000                  (X_U8.121)    1.0000                      

(X_U8.122)    1.0009                  (X_U8.710)   15.8670                      

(X_U8.720)   15.2040                  (X_U13.120)    2.0000                     

(X_U13.121)    1.0000                 (X_U13.122)    1.0009                     

(X_U13.710)    1.6100                 (X_U13.720)     .8210                 




    VOLTAGE SOURCE CURRENTS
    NAME         CURRENT

    V_V2         2.648E-02
    V_V1        -1.813E-01
    X_U7.VOFF   -2.710E-11
    X_U7.VSENS1   1.000E-03
    X_U7.VTEMP   3.014E-06
    X_U7.VCMX    2.908E-06
    X_U7.VPSX    0.000E+00
    X_U7.VCXX   -5.817E-12
    X_U7.VOOP    1.139E-02
    X_U7.VOON    2.847E-05
    X_U7.VOX     1.148E-02
    X_U7.VFX1    1.148E-02
    X_U7.VFX2   -7.282E-13
    X_U8.VOFF   -2.710E-11
    X_U8.VSENS1   1.000E-03
    X_U8.VTEMP   3.014E-06
    X_U8.VCMX   -1.853E-07
    X_U8.VPSX    0.000E+00
    X_U8.VCXX    3.706E-13
    X_U8.VOOP    5.686E-04
    X_U8.VOON    2.856E-05
    X_U8.VOX     5.458E-04
    X_U8.VFX1    5.458E-04
    X_U8.VFX2   -6.494E-13
    X_U5.VOFF   -2.710E-11
    X_U5.VSENS1   1.000E-03
    X_U5.VTEMP   3.014E-06
    X_U5.VCMX   -2.782E-09
    X_U5.VPSX    0.000E+00
    X_U5.VCXX    5.563E-15
    X_U5.VOOP    1.400E-01
    X_U5.VOON    1.677E-05
    X_U5.VOX     1.414E-01
    X_U5.VFX1    1.414E-01
    X_U5.VFX2   -7.932E-13
    X_U13.VOFF  -2.710E-11
    X_U13.VSENS1   1.000E-03
    X_U13.VTEMP   3.014E-06
    X_U13.VCMX   1.420E-06
    X_U13.VPSX   0.000E+00
    X_U13.VCXX  -2.840E-12
    X_U13.VOOP   1.145E-02
    X_U13.VOON   1.002E-02
    X_U13.VOX    1.449E-03
    X_U13.VFX1   1.449E-03
    X_U13.VFX2  -6.747E-13

    TOTAL POWER DISSIPATION   3.12E+00  WATTS


**** 05/19/25 01:02:59 **** PSpice 24.1.0 (23 January 2025) *** ID# 0 ********

 ** Profile: "SCHEMATIC1-monte"  [ d:\facultate\an 2\semestru 2\cad\proiectul meu_pwm\proiectcad-pspicefiles\schematic1\monte.sim ] 


 ****     INITIAL TRANSIENT SOLUTION       TEMPERATURE =   27.000 DEG C

                      MONTE CARLO PASS 5

******************************************************************************



 NODE   VOLTAGE     NODE   VOLTAGE     NODE   VOLTAGE     NODE   VOLTAGE


(  OUT)    1.4058  (  VCC)   15.0000  ( -VCC)  -15.0000  (N27745)   13.3280     

(N27789) 305.8E-06 (N27803) 589.7E-06 (N27903)   13.3280 (N28115)     .7284     

(N28363)    -.5518 (N28413)    1.4050 (N28519)   -5.1383 (N30576)    1.4050     

(N30840)    6.8862 (N34705)    -.5518 (N56018)   13.5560 (N56026)    6.0826     

(N65354)   13.3280 (X_U5.10)    0.0000                   (X_U5.11)    -.0028    

(X_U5.17)    0.0000                   (X_U5.18)    -.0027                       

(X_U5.19)    -.0031                   (X_U5.21)   -1.2500                       

(X_U5.22)   28.7500                   (X_U5.23)   28.7500                       

(X_U5.24)    1.6551                   (X_U5.25)    1.0000                       

(X_U5.26)    1.0000                   (X_U5.27)     .8337                       

(X_U5.28)     .6836                   (X_U5.29)    0.0000                       

(X_U5.31)    4.0000                   (X_U5.32)    3.0000                       

(X_U5.33)    2.0000                   (X_U5.34)    1.0000                       

(X_U5.38)    -.0028                   (X_U5.39)    -.0028                       

(X_U5.40)   15.0000                   (X_U5.41)    -.0028                       

(X_U5.42)   15.0000                   (X_U5.43)    0.0000                       

(X_U5.44)    0.0000                   (X_U5.45)    0.0000                       

(X_U5.50)  -15.0000                   (X_U5.51)   99.3000                       

(X_U5.52)  -95.8520                   (X_U5.57)     .0237                       

(X_U5.58)-633.3E-06                   (X_U5.59)    6.3332                       

(X_U5.71)    6.3319                   (X_U5.72)    5.5364                       

(X_U5.73)    2.7517                   (X_U5.74)   13.6000                       

(X_U5.75)  -13.4000                   (X_U5.76)   15.0000                       

(X_U5.77)  -15.0000                   (X_U5.78)    1.9093                       

(X_U5.79)    1.7679                   (X_U5.81)    1.7679                       

(X_U5.86) 589.7E-06                   (X_U5.91)    0.0000                       

(X_U5.92)    0.0000                   (X_U5.93)     .7832                       

(X_U5.94)    -.0028                   (X_U5.95)  -13.3000                       

(X_U5.96)    -.0028                   (X_U5.97)   13.3000                       

(X_U5.98)    -.0028                   (X_U5.99)    -.0028                       

(X_U7.10)    0.0000                   (X_U7.11)    2.9538                       

(X_U7.17)    0.0000                   (X_U7.18)    -.0018                       

(X_U7.19)    6.0783                   (X_U7.21)   -1.2500                       

(X_U7.22)   28.7500                   (X_U7.23)   28.7500                       

(X_U7.24)    1.6551                   (X_U7.25)    1.0000                       

(X_U7.26)    1.0000                   (X_U7.27)     .8337                       

(X_U7.28)     .6836                   (X_U7.29)    0.0000                       

(X_U7.31)    4.0000                   (X_U7.32)    3.0000                       

(X_U7.33)    2.0000                   (X_U7.34)    1.0000                       

(X_U7.38)    2.9538                   (X_U7.39)    2.9538                       

(X_U7.40)   15.0000                   (X_U7.41)    2.9538                       

(X_U7.42)   15.0000                   (X_U7.43)    0.0000                       

(X_U7.44)    0.0000                   (X_U7.45)    0.0000                       

(X_U7.50)  -15.0000                   (X_U7.51)   99.3000                       

(X_U7.52)  -95.8520                   (X_U7.57)  100.1700                       

(X_U7.58)   -2.6795                   (X_U7.59)   15.9190                       

(X_U7.71)   15.9170                   (X_U7.72)   15.1220                       

(X_U7.73)   14.2620                   (X_U7.74)   13.6000                       

(X_U7.75)  -13.4000                   (X_U7.76)   15.0000                       

(X_U7.77)  -15.0000                   (X_U7.78)   13.4840                       

(X_U7.79)   13.4720                   (X_U7.81)   13.4720                       

(X_U7.86)   13.3280                   (X_U7.91)    0.0000                       

(X_U7.92)    0.0000                   (X_U7.93)     .7183                       

(X_U7.94)    2.9538                   (X_U7.95)  -13.3000                       

(X_U7.96)    2.9538                   (X_U7.97)   13.3000                       

(X_U7.98)    2.9538                   (X_U7.99)    2.9538                       

(X_U8.10)    0.0000                   (X_U8.11)    -.2709                       

(X_U8.17)    0.0000                   (X_U8.18)    -.5547                       

(X_U8.19)    -.0026                   (X_U8.21)   -1.2500                       

(X_U8.22)   28.7500                   (X_U8.23)   28.7500                       

(X_U8.24)    1.6551                   (X_U8.25)    1.0000                       

(X_U8.26)    1.0000                   (X_U8.27)     .8337                       

(X_U8.28)     .6836                   (X_U8.29)    0.0000                       

(X_U8.31)    4.0000                   (X_U8.32)    3.0000                       

(X_U8.33)    2.0000                   (X_U8.34)    1.0000                       

(X_U8.38)    -.2709                   (X_U8.39)    -.2709                       

(X_U8.40)   15.0000                   (X_U8.41)    -.2709                       

(X_U8.42)   15.0000                   (X_U8.43)    0.0000                       

(X_U8.44)    0.0000                   (X_U8.45)    0.0000                       

(X_U8.50)  -15.0000                   (X_U8.51)   99.3000                       

(X_U8.52)  -95.8520                   (X_U8.57)   20.6860                       

(X_U8.58)    -.5534                   (X_U8.59)   15.8780                       

(X_U8.71)   15.8770                   (X_U8.72)   15.0810                       

(X_U8.73)   14.2640                   (X_U8.74)   13.6000                       

(X_U8.75)  -13.4000                   (X_U8.76)   15.0000                       

(X_U8.77)  -15.0000                   (X_U8.78)   13.5640                       

(X_U8.79)   13.5630                   (X_U8.81)   13.5630                       

(X_U8.86)   13.5560                   (X_U8.91)    0.0000                       

(X_U8.92)    0.0000                   (X_U8.93)     .6395                       

(X_U8.94)    -.2709                   (X_U8.95)  -13.3000                       

(X_U8.96)    -.2709                   (X_U8.97)   13.3000                       

(X_U8.98)    -.2709                   (X_U8.99)    -.2709                       

(X_U13.10)    0.0000                  (X_U13.11)    1.3634                      

(X_U13.17)    0.0000                  (X_U13.18)    1.4028                      

(X_U13.19)    1.4019                  (X_U13.21)   -1.2500                      

(X_U13.22)   28.7500                  (X_U13.23)   28.7500                      

(X_U13.24)    1.6551                  (X_U13.25)    1.0000                      

(X_U13.26)    1.0000                  (X_U13.27)     .8337                      

(X_U13.28)     .6836                  (X_U13.29)    0.0000                      

(X_U13.31)    4.0000                  (X_U13.32)    3.0000                      

(X_U13.33)    2.0000                  (X_U13.34)    1.0000                      

(X_U13.38)    1.3634                  (X_U13.39)    1.3634                      

(X_U13.40)   15.0000                  (X_U13.41)    1.3634                      

(X_U13.42)   15.0000                  (X_U13.43)    0.0000                      

(X_U13.44)    0.0000                  (X_U13.45)    0.0000                      

(X_U13.50)  -15.0000                  (X_U13.51)   99.3000                      

(X_U13.52)  -95.8520                  (X_U13.57)     .0053                      

(X_U13.58)-142.2E-06                  (X_U13.59)    1.4220                      

(X_U13.71)    1.4221                  (X_U13.72)     .6387                      

(X_U13.73)    2.2123                  (X_U13.74)   13.6000                      

(X_U13.75)  -13.4000                  (X_U13.76)   15.0000                      

(X_U13.77)  -15.0000                  (X_U13.78)    1.4346                      

(X_U13.79)    1.4129                  (X_U13.81)    1.4231                      

(X_U13.86)    1.4058                  (X_U13.91)    0.0000                      

(X_U13.92)    0.0000                  (X_U13.93)     .6635                      

(X_U13.94)    1.3634                  (X_U13.95)  -13.3000                      

(X_U13.96)    1.3634                  (X_U13.97)   13.3000                      

(X_U13.98)    1.3634                  (X_U13.99)    1.3634                      

(X_U5.120)    2.0000                  (X_U5.121)    1.0000                      

(X_U5.122)    1.0009                  (X_U5.710)    6.3319                      

(X_U5.720)    5.6694                  (X_U7.120)    2.0000                      

(X_U7.121)    1.0000                  (X_U7.122)    1.0009                      

(X_U7.710)   15.9170                  (X_U7.720)   15.2550                      

(X_U8.120)    2.0000                  (X_U8.121)    1.0000                      

(X_U8.122)    1.0009                  (X_U8.710)   15.8770                      

(X_U8.720)   15.2140                  (X_U13.120)    2.0000                     

(X_U13.121)    1.0000                 (X_U13.122)    1.0009                     

(X_U13.710)    1.5507                 (X_U13.720)     .7616                 




    VOLTAGE SOURCE CURRENTS
    NAME         CURRENT

    V_V2         2.648E-02
    V_V1        -1.813E-01
    X_U7.VOFF   -2.710E-11
    X_U7.VSENS1   1.000E-03
    X_U7.VTEMP   3.014E-06
    X_U7.VCMX    2.954E-06
    X_U7.VPSX    0.000E+00
    X_U7.VCXX   -5.908E-12
    X_U7.VOOP    1.143E-02
    X_U7.VOON    2.847E-05
    X_U7.VOX     1.152E-02
    X_U7.VFX1    1.152E-02
    X_U7.VFX2   -7.283E-13
    X_U8.VOFF   -2.710E-11
    X_U8.VSENS1   1.000E-03
    X_U8.VTEMP   3.014E-06
    X_U8.VCMX   -2.709E-07
    X_U8.VPSX    0.000E+00
    X_U8.VCXX    5.418E-13
    X_U8.VOOP    5.710E-04
    X_U8.VOON    2.856E-05
    X_U8.VOX     5.481E-04
    X_U8.VFX1    5.481E-04
    X_U8.VFX2   -6.495E-13
    X_U5.VOFF   -2.710E-11
    X_U5.VSENS1   1.000E-03
    X_U5.VTEMP   3.014E-06
    X_U5.VCMX   -2.782E-09
    X_U5.VPSX    0.000E+00
    X_U5.VCXX    5.563E-15
    X_U5.VOOP    1.400E-01
    X_U5.VOON    1.677E-05
    X_U5.VOX     1.414E-01
    X_U5.VFX1    1.414E-01
    X_U5.VFX2   -7.932E-13
    X_U13.VOFF  -2.710E-11
    X_U13.VSENS1   1.000E-03
    X_U13.VTEMP   3.014E-06
    X_U13.VCMX   1.363E-06
    X_U13.VPSX   0.000E+00
    X_U13.VCXX  -2.727E-12
    X_U13.VOOP   1.142E-02
    X_U13.VOON   1.005E-02
    X_U13.VOX    1.384E-03
    X_U13.VFX1   1.384E-03
    X_U13.VFX2  -6.735E-13

    TOTAL POWER DISSIPATION   3.12E+00  WATTS


**** 05/19/25 01:02:59 **** PSpice 24.1.0 (23 January 2025) *** ID# 0 ********

 ** Profile: "SCHEMATIC1-monte"  [ d:\facultate\an 2\semestru 2\cad\proiectul meu_pwm\proiectcad-pspicefiles\schematic1\monte.sim ] 


 ****     SORTED DEVIATIONS OF V(OUT)      TEMPERATURE =   27.000 DEG C

                      MONTE CARLO SUMMARY

******************************************************************************





Mean Deviation =   -1.4298
Sigma          =    2.535 

 RUN                    MAX DEVIATION FROM NOMINAL

Pass    2               2.9608  (1.17 sigma)  higher  at T =  249.5400E-06
                        (-101.92% of Nominal)

Pass    4               2.9306  (1.16 sigma)  lower  at T =   32.3680E-06
                        ( -98.655% of Nominal)

Pass    3               2.8751  (1.13 sigma)  lower  at T =   32.0010E-06
                        ( -94.89 % of Nominal)

Pass    5               2.8742  (1.13 sigma)  lower  at T =  188.5200E-06
                        ( -94.612% of Nominal)



          JOB CONCLUDED

**** 05/19/25 01:02:59 **** PSpice 24.1.0 (23 January 2025) *** ID# 0 ********

 ** Profile: "SCHEMATIC1-monte"  [ d:\facultate\an 2\semestru 2\cad\proiectul meu_pwm\proiectcad-pspicefiles\schematic1\monte.sim ] 


 ****     JOB STATISTICS SUMMARY


******************************************************************************



  Total job time (using Solver 1)   =        5.58
