
**** 05/15/25 23:12:27 **** PSpice 24.1.0 (23 January 2025) *** ID# 0 ********

 ** Profile: "SCHEMATIC1-monte"  [ d:\facultate\an 2\semestru 2\cad\proiectul meu_pwm\proiectcad-pspicefiles\schematic1\monte.sim ] 


 ****     CIRCUIT DESCRIPTION


******************************************************************************




** Creating circuit file "monte.cir" 
** WARNING: THIS AUTOMATICALLY GENERATED FILE MAY BE OVERWRITTEN BY SUBSEQUENT SIMULATIONS

*Libraries: 
* Profile Libraries :
* Local Libraries :
* From [PSPICE NETLIST] section of C:\Users\user\AppData\Roaming\SPB_Data\cdssetup\OrCAD_PSpice\24.1.0\PSpice.ini file:
.lib "nom.lib" 

*Analysis directives: 
.TRAN  0 900u 0 
.WCASE TRAN V([OUT]) YMAX VARY BOTH  HI 
.OPTIONS ADVCONV
.PROBE64 V(alias(*)) I(alias(*)) W(alias(*)) D(alias(*)) NOISE(alias(*)) 
.INC "..\SCHEMATIC1.net" 



**** INCLUDING SCHEMATIC1.net ****
* source PROIECTCAD
V_V2         -VCC 0 -15V
R_R3         N27745 N27903 R_R3 22k  
.model        R_R3 RES R=1 DEV=5%
X_P1    N28519 N28363 N34705 SCHEMATIC1_P1 
X_U7         N56026 0 VCC -VCC N27745 LM7171A/NS
D_D1         N27789 N27903 D1N4448 
R_R5         VCC N28363 R_R5 33k  
.model        R_R5 RES R=1 DEV=5%
D_D2         N28115 N27789 D1N4448 
R_R9         0 OUT R_R9 1k  
.model        R_R9 RES R=1 DEV=5%
R_R2         N56026 N27745 R_R2 13k  
.model        R_R2 RES R=1 DEV=5%
R_R4         N27745 N28115 R_R4 1.1k  
.model        R_R4 RES R=1 DEV=5%
R_R7         N30840 N56018 R_R7 12k  
.model        R_R7 RES R=1 DEV=5%
V_V1         VCC 0 15V
C_C1         N27789 N27803 C_C1 1n  
.model        C_C1 CAP C=1 DEV=10%
R_R6         N28519 -VCC R_R6 22k  
.model        R_R6 RES R=1 DEV=5%
R_R1         N27803 N56026 R_R1 11k  
.model        R_R1 RES R=1 DEV=5%
X_P2    N30840 N30576 N30995 SCHEMATIC1_P2 
X_U8         N27803 N34705 VCC -VCC N56018 LM7171A/NS
R_R8         0 N30576 R_R8 2.7k  
.model        R_R8 RES R=1 DEV=5%
X_U5         0 N27789 VCC -VCC N27803 LM7171A/NS
X_U6         N30995 OUT VCC -VCC OUT LM7171A/NS
.IC         V(N27789 )=0
.PARAM  setfu=0 seta=1

.subckt SCHEMATIC1_P1 1 2 t  
RT_P1         1 t {(10k*(1-{setfu}))+.001}
RB_P1         t 2 {(10k*{setfu})+.001}
.ends SCHEMATIC1_P1

.subckt SCHEMATIC1_P2 1 2 t  
RT_P2         1 t {(10K*(1-{seta}))+.001}
RB_P2         t 2 {(10K*{seta})+.001}
.ends SCHEMATIC1_P2

**** RESUMING monte.cir ****
.END

**** 05/15/25 23:12:27 **** PSpice 24.1.0 (23 January 2025) *** ID# 0 ********

 ** Profile: "SCHEMATIC1-monte"  [ d:\facultate\an 2\semestru 2\cad\proiectul meu_pwm\proiectcad-pspicefiles\schematic1\monte.sim ] 


 ****     Diode MODEL PARAMETERS


******************************************************************************




               D1N4448         X_U7.DMOD1      X_U7.DMOD2      X_U8.DMOD1      
          IS    2.681000E-09   10.000000E-15   10.000000E-18   10.000000E-15 
           N    1.835                                                        
         ISR    1.566000E-09                                                 
         IKF     .03482                                                      
          BV  100                                                            
         IBV  100.000000E-06                                                 
          RS     .5142                                                       
          TT   11.540000E-09                                                 
         CJO    4.000000E-12                                                 
          VJ     .5                                                          
           M     .3333                                                       


               X_U8.DMOD2      X_U5.DMOD1      X_U5.DMOD2      X_U6.DMOD1      
          IS   10.000000E-18   10.000000E-15   10.000000E-18   10.000000E-15 


               X_U6.DMOD2      
          IS   10.000000E-18 


**** 05/15/25 23:12:27 **** PSpice 24.1.0 (23 January 2025) *** ID# 0 ********

 ** Profile: "SCHEMATIC1-monte"  [ d:\facultate\an 2\semestru 2\cad\proiectul meu_pwm\proiectcad-pspicefiles\schematic1\monte.sim ] 


 ****     BJT MODEL PARAMETERS


******************************************************************************




               X_U7.NPN1       X_U7.PNP1       X_U8.NPN1       X_U8.PNP1       
               NPN             PNP             NPN             PNP             
       LEVEL    1               1               1               1            
          IS    1.000000E-15    1.000000E-15    1.000000E-15    1.000000E-15 
          BF  100             100             100             100            
          NF    1               1               1               1            
          BR    1               1               1               1            
          NR    1               1               1               1            
         ISS    0               0               0               0            
          RE    0               0               0               0            
          RC    0               0               0               0            
         CJE    0               0               0               0            
         VJE     .75             .75             .75             .75         
         CJC    0               0               0               0            
         VJC     .75             .75             .75             .75         
         MJC     .33             .33             .33             .33         
        XCJC    1               1               1               1            
         CJS    0               0               0               0            
         VJS     .75             .75             .75             .75         
          KF    0               0               0               0            
          AF    1               1               1               1            
          CN    2.42            2.2             2.42            2.2          
           D     .87             .52             .87             .52         


               X_U5.NPN1       X_U5.PNP1       X_U6.NPN1       X_U6.PNP1       
               NPN             PNP             NPN             PNP             
       LEVEL    1               1               1               1            
          IS    1.000000E-15    1.000000E-15    1.000000E-15    1.000000E-15 
          BF  100             100             100             100            
          NF    1               1               1               1            
          BR    1               1               1               1            
          NR    1               1               1               1            
         ISS    0               0               0               0            
          RE    0               0               0               0            
          RC    0               0               0               0            
         CJE    0               0               0               0            
         VJE     .75             .75             .75             .75         
         CJC    0               0               0               0            
         VJC     .75             .75             .75             .75         
         MJC     .33             .33             .33             .33         
        XCJC    1               1               1               1            
         CJS    0               0               0               0            
         VJS     .75             .75             .75             .75         
          KF    0               0               0               0            
          AF    1               1               1               1            
          CN    2.42            2.2             2.42            2.2          
           D     .87             .52             .87             .52         


**** 05/15/25 23:12:27 **** PSpice 24.1.0 (23 January 2025) *** ID# 0 ********

 ** Profile: "SCHEMATIC1-monte"  [ d:\facultate\an 2\semestru 2\cad\proiectul meu_pwm\proiectcad-pspicefiles\schematic1\monte.sim ] 


 ****     Resistor MODEL PARAMETERS


******************************************************************************




               R_R3            R_R5            R_R9            R_R2            
           R    1               1               1               1            


               R_R4            R_R7            R_R6            R_R1            
           R    1               1               1               1            


               R_R8            X_U7.MRAX       X_U7.MRIB       X_U7.MRISC      
           R    1               1               1               1            
         TC1                  -70.000000E-06    4.520560E-03   -1.500000E-03 


               X_U8.MRAX       X_U8.MRIB       X_U8.MRISC      X_U5.MRAX       
           R    1               1               1               1            
         TC1  -70.000000E-06    4.520560E-03   -1.500000E-03  -70.000000E-06 


               X_U5.MRIB       X_U5.MRISC      X_U6.MRAX       X_U6.MRIB       
           R    1               1               1               1            
         TC1    4.520560E-03   -1.500000E-03  -70.000000E-06    4.520560E-03 


               X_U6.MRISC      
           R    1            
         TC1   -1.500000E-03 


**** 05/15/25 23:12:27 **** PSpice 24.1.0 (23 January 2025) *** ID# 0 ********

 ** Profile: "SCHEMATIC1-monte"  [ d:\facultate\an 2\semestru 2\cad\proiectul meu_pwm\proiectcad-pspicefiles\schematic1\monte.sim ] 


 ****     Capacitor MODEL PARAMETERS


******************************************************************************




               C_C1            
           C    1            


**** 05/15/25 23:12:27 **** PSpice 24.1.0 (23 January 2025) *** ID# 0 ********

 ** Profile: "SCHEMATIC1-monte"  [ d:\facultate\an 2\semestru 2\cad\proiectul meu_pwm\proiectcad-pspicefiles\schematic1\monte.sim ] 


 ****     INITIAL TRANSIENT SOLUTION       TEMPERATURE =   27.000 DEG C

                      SENSITIVITY NOMINAL

******************************************************************************



 NODE   VOLTAGE     NODE   VOLTAGE     NODE   VOLTAGE     NODE   VOLTAGE


(  OUT)    6.9510  (  VCC)   15.0000  ( -VCC)  -15.0000  (N27745)   13.3270     

(N27789) 22.90E-06 (N27803)    9.1687 (N27903)   13.3270 (N28115)     .7308     

(N28363)    -.2491 (N28519)   -4.8588 (N30576)    1.4777 (N30840)    6.9507     

(N30995)    6.9507 (N34705)    -.2491 (N56018)   13.5560 (N56026)   11.0430     

(X_U5.10)    0.0000                   (X_U5.11)    -.0029                       

(X_U5.17)    0.0000                   (X_U5.18)    -.0029                       

(X_U5.19)    -.0031                   (X_U5.21)   -1.2500                       

(X_U5.22)   28.7500                   (X_U5.23)   28.7500                       

(X_U5.24)    1.6551                   (X_U5.25)    1.0000                       

(X_U5.26)    1.0000                   (X_U5.27)     .8337                       

(X_U5.28)     .6836                   (X_U5.29)    0.0000                       

(X_U5.31)    4.0000                   (X_U5.32)    3.0000                       

(X_U5.33)    2.0000                   (X_U5.34)    1.0000                       

(X_U5.38)    -.0029                   (X_U5.39)    -.0029                       

(X_U5.40)   15.0000                   (X_U5.41)    -.0029                       

(X_U5.42)   15.0000                   (X_U5.43)    0.0000                       

(X_U5.44)    0.0000                   (X_U5.45)    0.0000                       

(X_U5.50)  -15.0000                   (X_U5.51)   99.3000                       

(X_U5.52)  -95.8520                   (X_U5.57)     .0342                       

(X_U5.58)-916.2E-06                   (X_U5.59)    9.1620                       

(X_U5.71)    9.1621                   (X_U5.72)    8.3796                       

(X_U5.73)    9.9532                   (X_U5.74)   13.6000                       

(X_U5.75)  -13.4000                   (X_U5.76)   15.0000                       

(X_U5.77)  -15.0000                   (X_U5.78)    9.1774                       

(X_U5.79)    9.1558                   (X_U5.81)    9.1667                       

(X_U5.86)    9.1687                   (X_U5.91)    0.0000                       

(X_U5.92)    0.0000                   (X_U5.93)    -.6086                       

(X_U5.94)    -.0029                   (X_U5.95)  -13.3000                       

(X_U5.96)    -.0029                   (X_U5.97)   13.3000                       

(X_U5.98)    -.0029                   (X_U5.99)    -.0029                       

(X_U6.10)    0.0000                   (X_U6.11)    6.7547                       

(X_U6.17)    0.0000                   (X_U6.18)    6.9479                       

(X_U6.19)    6.9476                   (X_U6.21)   -1.2500                       

(X_U6.22)   28.7500                   (X_U6.23)   28.7500                       

(X_U6.24)    1.6551                   (X_U6.25)    1.0000                       

(X_U6.26)    1.0000                   (X_U6.27)     .8337                       

(X_U6.28)     .6836                   (X_U6.29)    0.0000                       

(X_U6.31)    4.0000                   (X_U6.32)    3.0000                       

(X_U6.33)    2.0000                   (X_U6.34)    1.0000                       

(X_U6.38)    6.7547                   (X_U6.39)    6.7547                       

(X_U6.40)   15.0000                   (X_U6.41)    6.7546                       

(X_U6.42)   15.0000                   (X_U6.43)    0.0000                       

(X_U6.44)    0.0000                   (X_U6.45)    0.0000                       

(X_U6.50)  -15.0000                   (X_U6.51)   99.3000                       

(X_U6.52)  -95.8520                   (X_U6.57)     .0264                       

(X_U6.58)-705.0E-06                   (X_U6.59)    7.0497                       

(X_U6.71)    7.0497                   (X_U6.72)    6.2633                       

(X_U6.73)    7.8362                   (X_U6.74)   13.6000                       

(X_U6.75)  -13.4000                   (X_U6.76)   15.0000                       

(X_U6.77)  -15.0000                   (X_U6.78)    7.0525                       

(X_U6.79)    7.0303                   (X_U6.81)    7.0379                       

(X_U6.86)    6.9510                   (X_U6.91)    0.0000                       

(X_U6.92)    0.0000                   (X_U6.93)     .7053                       

(X_U6.94)    6.7547                   (X_U6.95)  -13.3000                       

(X_U6.96)    6.7547                   (X_U6.97)   13.3000                       

(X_U6.98)    6.7547                   (X_U6.99)    6.7547                       

(X_U7.10)    0.0000                   (X_U7.11)    5.3650                       

(X_U7.17)    0.0000                   (X_U7.18)-817.5E-06                       

(X_U7.19)   11.0370                   (X_U7.21)   -1.2500                       

(X_U7.22)   28.7500                   (X_U7.23)   28.7500                       

(X_U7.24)    1.6551                   (X_U7.25)    1.0000                       

(X_U7.26)    1.0000                   (X_U7.27)     .8337                       

(X_U7.28)     .6836                   (X_U7.29)    0.0000                       

(X_U7.31)    4.0000                   (X_U7.32)    3.0000                       

(X_U7.33)    2.0000                   (X_U7.34)    1.0000                       

(X_U7.38)    5.3650                   (X_U7.39)    5.3650                       

(X_U7.40)   15.0000                   (X_U7.41)    5.3649                       

(X_U7.42)   15.0000                   (X_U7.43)    0.0000                       

(X_U7.44)    0.0000                   (X_U7.45)    0.0000                       

(X_U7.50)  -15.0000                   (X_U7.51)   99.3000                       

(X_U7.52)  -95.8520                   (X_U7.57)  100.1900                       

(X_U7.58)   -2.6802                   (X_U7.59)   15.9190                       

(X_U7.71)   15.9170                   (X_U7.72)   15.1220                       

(X_U7.73)   14.2620                   (X_U7.74)   13.6000                       

(X_U7.75)  -13.4000                   (X_U7.76)   15.0000                       

(X_U7.77)  -15.0000                   (X_U7.78)   13.4840                       

(X_U7.79)   13.4720                   (X_U7.81)   13.4720                       

(X_U7.86)   13.3270                   (X_U7.91)    0.0000                       

(X_U7.92)    0.0000                   (X_U7.93)     .7186                       

(X_U7.94)    5.3650                   (X_U7.95)  -13.3000                       

(X_U7.96)    5.3650                   (X_U7.97)   13.3000                       

(X_U7.98)    5.3650                   (X_U7.99)    5.3650                       

(X_U8.10)    0.0000                   (X_U8.11)    4.3329                       

(X_U8.17)    0.0000                   (X_U8.18)    -.2503                       

(X_U8.19)    9.1637                   (X_U8.21)   -1.2500                       

(X_U8.22)   28.7500                   (X_U8.23)   28.7500                       

(X_U8.24)    1.6551                   (X_U8.25)    1.0000                       

(X_U8.26)    1.0000                   (X_U8.27)     .8337                       

(X_U8.28)     .6836                   (X_U8.29)    0.0000                       

(X_U8.31)    4.0000                   (X_U8.32)    3.0000                       

(X_U8.33)    2.0000                   (X_U8.34)    1.0000                       

(X_U8.38)    4.3329                   (X_U8.39)    4.3329                       

(X_U8.40)   15.0000                   (X_U8.41)    4.3329                       

(X_U8.42)   15.0000                   (X_U8.43)    0.0000                       

(X_U8.44)    0.0000                   (X_U8.45)    0.0000                       

(X_U8.50)  -15.0000                   (X_U8.51)   99.3000                       

(X_U8.52)  -95.8520                   (X_U8.57)  100.1800                       

(X_U8.58)   -2.6800                   (X_U8.59)   15.9190                       

(X_U8.71)   15.9170                   (X_U8.72)   15.1220                       

(X_U8.73)   14.2640                   (X_U8.74)   13.6000                       

(X_U8.75)  -13.4000                   (X_U8.76)   15.0000                       

(X_U8.77)  -15.0000                   (X_U8.78)   13.5630                       

(X_U8.79)   13.5630                   (X_U8.81)   13.5630                       

(X_U8.86)   13.5560                   (X_U8.91)    0.0000                       

(X_U8.92)    0.0000                   (X_U8.93)     .6397                       

(X_U8.94)    4.3329                   (X_U8.95)  -13.3000                       

(X_U8.96)    4.3329                   (X_U8.97)   13.3000                       

(X_U8.98)    4.3329                   (X_U8.99)    4.3329                       

(X_U5.120)    2.0000                  (X_U5.121)    1.0000                      

(X_U5.122)    1.0009                  (X_U5.710)    9.2915                      

(X_U5.720)    8.5018                  (X_U6.120)    2.0000                      

(X_U6.121)    1.0000                  (X_U6.122)    1.0009                      

(X_U6.710)    7.1753                  (X_U6.720)    6.3888                      

(X_U7.120)    2.0000                  (X_U7.121)    1.0000                      

(X_U7.122)    1.0009                  (X_U7.710)   15.9170                      

(X_U7.720)   15.2550                  (X_U8.120)    2.0000                      

(X_U8.121)    1.0000                  (X_U8.122)    1.0009                      

(X_U8.710)   15.9170                  (X_U8.720)   15.2550                  




    VOLTAGE SOURCE CURRENTS
    NAME         CURRENT

    V_V2         2.665E-02
    V_V1        -4.559E-02
    X_U7.VOFF   -2.710E-11
    X_U7.VSENS1   1.000E-03
    X_U7.VTEMP   3.014E-06
    X_U7.VCMX    5.365E-06
    X_U7.VPSX    0.000E+00
    X_U7.VCXX   -1.073E-11
    X_U7.VOOP    1.154E-02
    X_U7.VOON    2.847E-05
    X_U7.VOX     1.163E-02
    X_U7.VFX1    1.163E-02
    X_U7.VFX2   -7.286E-13
    X_U8.VOFF   -2.710E-11
    X_U8.VSENS1   1.000E-03
    X_U8.VTEMP   3.014E-06
    X_U8.VCMX    4.333E-06
    X_U8.VPSX    0.000E+00
    X_U8.VCXX   -8.666E-12
    X_U8.VOOP    5.733E-04
    X_U8.VOON    2.856E-05
    X_U8.VOX     5.504E-04
    X_U8.VFX1    5.504E-04
    X_U8.VFX2   -6.497E-13
    X_U5.VOFF   -2.710E-11
    X_U5.VSENS1   1.000E-03
    X_U5.VTEMP   3.014E-06
    X_U5.VCMX   -2.919E-09
    X_U5.VPSX    0.000E+00
    X_U5.VCXX    5.838E-15
    X_U5.VOOP    1.064E-02
    X_U5.VOON    1.081E-02
    X_U5.VOX    -1.654E-04
    X_U5.VFX1   -6.186E-13
    X_U5.VFX2    1.654E-04
    X_U6.VOFF   -2.710E-11
    X_U6.VSENS1   1.000E-03
    X_U6.VTEMP   3.014E-06
    X_U6.VCMX    6.755E-06
    X_U6.VPSX    0.000E+00
    X_U6.VCXX   -1.351E-11
    X_U6.VOOP    1.446E-02
    X_U6.VOON    7.575E-03
    X_U6.VOX     6.954E-03
    X_U6.VFX1    6.954E-03
    X_U6.VFX2   -7.153E-13

    TOTAL POWER DISSIPATION   1.08E+00  WATTS

 NODE   VOLTAGE     NODE   VOLTAGE     NODE   VOLTAGE     NODE   VOLTAGE


(  OUT)    6.9510  (  VCC)   15.0000  ( -VCC)  -15.0000  (N27745)   13.3270     

(N27789) 22.90E-06 (N27803)    9.1687 (N27903)   13.3270 (N28115)     .7308     

(N28363)    -.2491 (N28519)   -4.8588 (N30576)    1.4777 (N30840)    6.9507     

(N30995)    6.9507 (N34705)    -.2491 (N56018)   13.5560 (N56026)   11.0430     

(X_U5.10)    0.0000                   (X_U5.11)    -.0029                       

(X_U5.17)    0.0000                   (X_U5.18)    -.0029                       

(X_U5.19)    -.0031                   (X_U5.21)   -1.2500                       

(X_U5.22)   28.7500                   (X_U5.23)   28.7500                       

(X_U5.24)    1.6551                   (X_U5.25)    1.0000                       

(X_U5.26)    1.0000                   (X_U5.27)     .8337                       

(X_U5.28)     .6836                   (X_U5.29)    0.0000                       

(X_U5.31)    4.0000                   (X_U5.32)    3.0000                       

(X_U5.33)    2.0000                   (X_U5.34)    1.0000                       

(X_U5.38)    -.0029                   (X_U5.39)    -.0029                       

(X_U5.40)   15.0000                   (X_U5.41)    -.0029                       

(X_U5.42)   15.0000                   (X_U5.43)    0.0000                       

(X_U5.44)    0.0000                   (X_U5.45)    0.0000                       

(X_U5.50)  -15.0000                   (X_U5.51)   99.3000                       

(X_U5.52)  -95.8520                   (X_U5.57)     .0342                       

(X_U5.58)-916.2E-06                   (X_U5.59)    9.1620                       

(X_U5.71)    9.1621                   (X_U5.72)    8.3796                       

(X_U5.73)    9.9532                   (X_U5.74)   13.6000                       

(X_U5.75)  -13.4000                   (X_U5.76)   15.0000                       

(X_U5.77)  -15.0000                   (X_U5.78)    9.1774                       

(X_U5.79)    9.1558                   (X_U5.81)    9.1667                       

(X_U5.86)    9.1687                   (X_U5.91)    0.0000                       

(X_U5.92)    0.0000                   (X_U5.93)    -.6086                       

(X_U5.94)    -.0029                   (X_U5.95)  -13.3000                       

(X_U5.96)    -.0029                   (X_U5.97)   13.3000                       

(X_U5.98)    -.0029                   (X_U5.99)    -.0029                       

(X_U6.10)    0.0000                   (X_U6.11)    6.7547                       

(X_U6.17)    0.0000                   (X_U6.18)    6.9479                       

(X_U6.19)    6.9476                   (X_U6.21)   -1.2500                       

(X_U6.22)   28.7500                   (X_U6.23)   28.7500                       

(X_U6.24)    1.6551                   (X_U6.25)    1.0000                       

(X_U6.26)    1.0000                   (X_U6.27)     .8337                       

(X_U6.28)     .6836                   (X_U6.29)    0.0000                       

(X_U6.31)    4.0000                   (X_U6.32)    3.0000                       

(X_U6.33)    2.0000                   (X_U6.34)    1.0000                       

(X_U6.38)    6.7547                   (X_U6.39)    6.7547                       

(X_U6.40)   15.0000                   (X_U6.41)    6.7546                       

(X_U6.42)   15.0000                   (X_U6.43)    0.0000                       

(X_U6.44)    0.0000                   (X_U6.45)    0.0000                       

(X_U6.50)  -15.0000                   (X_U6.51)   99.3000                       

(X_U6.52)  -95.8520                   (X_U6.57)     .0264                       

(X_U6.58)-705.0E-06                   (X_U6.59)    7.0497                       

(X_U6.71)    7.0497                   (X_U6.72)    6.2633                       

(X_U6.73)    7.8362                   (X_U6.74)   13.6000                       

(X_U6.75)  -13.4000                   (X_U6.76)   15.0000                       

(X_U6.77)  -15.0000                   (X_U6.78)    7.0525                       

(X_U6.79)    7.0303                   (X_U6.81)    7.0379                       

(X_U6.86)    6.9510                   (X_U6.91)    0.0000                       

(X_U6.92)    0.0000                   (X_U6.93)     .7053                       

(X_U6.94)    6.7547                   (X_U6.95)  -13.3000                       

(X_U6.96)    6.7547                   (X_U6.97)   13.3000                       

(X_U6.98)    6.7547                   (X_U6.99)    6.7547                       

(X_U7.10)    0.0000                   (X_U7.11)    5.3650                       

(X_U7.17)    0.0000                   (X_U7.18)-817.5E-06                       

(X_U7.19)   11.0370                   (X_U7.21)   -1.2500                       

(X_U7.22)   28.7500                   (X_U7.23)   28.7500                       

(X_U7.24)    1.6551                   (X_U7.25)    1.0000                       

(X_U7.26)    1.0000                   (X_U7.27)     .8337                       

(X_U7.28)     .6836                   (X_U7.29)    0.0000                       

(X_U7.31)    4.0000                   (X_U7.32)    3.0000                       

(X_U7.33)    2.0000                   (X_U7.34)    1.0000                       

(X_U7.38)    5.3650                   (X_U7.39)    5.3650                       

(X_U7.40)   15.0000                   (X_U7.41)    5.3649                       

(X_U7.42)   15.0000                   (X_U7.43)    0.0000                       

(X_U7.44)    0.0000                   (X_U7.45)    0.0000                       

(X_U7.50)  -15.0000                   (X_U7.51)   99.3000                       

(X_U7.52)  -95.8520                   (X_U7.57)  100.1900                       

(X_U7.58)   -2.6802                   (X_U7.59)   15.9190                       

(X_U7.71)   15.9170                   (X_U7.72)   15.1220                       

(X_U7.73)   14.2620                   (X_U7.74)   13.6000                       

(X_U7.75)  -13.4000                   (X_U7.76)   15.0000                       

(X_U7.77)  -15.0000                   (X_U7.78)   13.4840                       

(X_U7.79)   13.4720                   (X_U7.81)   13.4720                       

(X_U7.86)   13.3270                   (X_U7.91)    0.0000                       

(X_U7.92)    0.0000                   (X_U7.93)     .7186                       

(X_U7.94)    5.3650                   (X_U7.95)  -13.3000                       

(X_U7.96)    5.3650                   (X_U7.97)   13.3000                       

(X_U7.98)    5.3650                   (X_U7.99)    5.3650                       

(X_U8.10)    0.0000                   (X_U8.11)    4.3329                       

(X_U8.17)    0.0000                   (X_U8.18)    -.2503                       

(X_U8.19)    9.1637                   (X_U8.21)   -1.2500                       

(X_U8.22)   28.7500                   (X_U8.23)   28.7500                       

(X_U8.24)    1.6551                   (X_U8.25)    1.0000                       

(X_U8.26)    1.0000                   (X_U8.27)     .8337                       

(X_U8.28)     .6836                   (X_U8.29)    0.0000                       

(X_U8.31)    4.0000                   (X_U8.32)    3.0000                       

(X_U8.33)    2.0000                   (X_U8.34)    1.0000                       

(X_U8.38)    4.3329                   (X_U8.39)    4.3329                       

(X_U8.40)   15.0000                   (X_U8.41)    4.3329                       

(X_U8.42)   15.0000                   (X_U8.43)    0.0000                       

(X_U8.44)    0.0000                   (X_U8.45)    0.0000                       

(X_U8.50)  -15.0000                   (X_U8.51)   99.3000                       

(X_U8.52)  -95.8520                   (X_U8.57)  100.1800                       

(X_U8.58)   -2.6800                   (X_U8.59)   15.9190                       

(X_U8.71)   15.9170                   (X_U8.72)   15.1220                       

(X_U8.73)   14.2640                   (X_U8.74)   13.6000                       

(X_U8.75)  -13.4000                   (X_U8.76)   15.0000                       

(X_U8.77)  -15.0000                   (X_U8.78)   13.5630                       

(X_U8.79)   13.5630                   (X_U8.81)   13.5630                       

(X_U8.86)   13.5560                   (X_U8.91)    0.0000                       

(X_U8.92)    0.0000                   (X_U8.93)     .6397                       

(X_U8.94)    4.3329                   (X_U8.95)  -13.3000                       

(X_U8.96)    4.3329                   (X_U8.97)   13.3000                       

(X_U8.98)    4.3329                   (X_U8.99)    4.3329                       

(X_U5.120)    2.0000                  (X_U5.121)    1.0000                      

(X_U5.122)    1.0009                  (X_U5.710)    9.2915                      

(X_U5.720)    8.5018                  (X_U6.120)    2.0000                      

(X_U6.121)    1.0000                  (X_U6.122)    1.0009                      

(X_U6.710)    7.1753                  (X_U6.720)    6.3888                      

(X_U7.120)    2.0000                  (X_U7.121)    1.0000                      

(X_U7.122)    1.0009                  (X_U7.710)   15.9170                      

(X_U7.720)   15.2550                  (X_U8.120)    2.0000                      

(X_U8.121)    1.0000                  (X_U8.122)    1.0009                      

(X_U8.710)   15.9170                  (X_U8.720)   15.2550                  




    VOLTAGE SOURCE CURRENTS
    NAME         CURRENT

    V_V2         2.665E-02
    V_V1        -4.559E-02
    X_U7.VOFF   -2.710E-11
    X_U7.VSENS1   1.000E-03
    X_U7.VTEMP   3.014E-06
    X_U7.VCMX    5.365E-06
    X_U7.VPSX    0.000E+00
    X_U7.VCXX   -1.073E-11
    X_U7.VOOP    1.154E-02
    X_U7.VOON    2.847E-05
    X_U7.VOX     1.163E-02
    X_U7.VFX1    1.163E-02
    X_U7.VFX2   -7.286E-13
    X_U8.VOFF   -2.710E-11
    X_U8.VSENS1   1.000E-03
    X_U8.VTEMP   3.014E-06
    X_U8.VCMX    4.333E-06
    X_U8.VPSX    0.000E+00
    X_U8.VCXX   -8.666E-12
    X_U8.VOOP    5.733E-04
    X_U8.VOON    2.856E-05
    X_U8.VOX     5.504E-04
    X_U8.VFX1    5.504E-04
    X_U8.VFX2   -6.497E-13
    X_U5.VOFF   -2.710E-11
    X_U5.VSENS1   1.000E-03
    X_U5.VTEMP   3.014E-06
    X_U5.VCMX   -2.919E-09
    X_U5.VPSX    0.000E+00
    X_U5.VCXX    5.838E-15
    X_U5.VOOP    1.064E-02
    X_U5.VOON    1.081E-02
    X_U5.VOX    -1.654E-04
    X_U5.VFX1   -6.186E-13
    X_U5.VFX2    1.654E-04
    X_U6.VOFF   -2.710E-11
    X_U6.VSENS1   1.000E-03
    X_U6.VTEMP   3.014E-06
    X_U6.VCMX    6.755E-06
    X_U6.VPSX    0.000E+00
    X_U6.VCXX   -1.351E-11
    X_U6.VOOP    1.446E-02
    X_U6.VOON    7.575E-03
    X_U6.VOX     6.954E-03
    X_U6.VFX1    6.954E-03
    X_U6.VFX2   -7.153E-13

    TOTAL POWER DISSIPATION   1.08E+00  WATTS

 NODE   VOLTAGE     NODE   VOLTAGE     NODE   VOLTAGE     NODE   VOLTAGE


(  OUT)    6.9510  (  VCC)   15.0000  ( -VCC)  -15.0000  (N27745)   13.3270     

(N27789) 22.90E-06 (N27803)    9.1687 (N27903)   13.3270 (N28115)     .7308     

(N28363)    -.2491 (N28519)   -4.8588 (N30576)    1.4777 (N30840)    6.9507     

(N30995)    6.9507 (N34705)    -.2491 (N56018)   13.5560 (N56026)   11.0430     

(X_U5.10)    0.0000                   (X_U5.11)    -.0029                       

(X_U5.17)    0.0000                   (X_U5.18)    -.0029                       

(X_U5.19)    -.0031                   (X_U5.21)   -1.2500                       

(X_U5.22)   28.7500                   (X_U5.23)   28.7500                       

(X_U5.24)    1.6551                   (X_U5.25)    1.0000                       

(X_U5.26)    1.0000                   (X_U5.27)     .8337                       

(X_U5.28)     .6836                   (X_U5.29)    0.0000                       

(X_U5.31)    4.0000                   (X_U5.32)    3.0000                       

(X_U5.33)    2.0000                   (X_U5.34)    1.0000                       

(X_U5.38)    -.0029                   (X_U5.39)    -.0029                       

(X_U5.40)   15.0000                   (X_U5.41)    -.0029                       

(X_U5.42)   15.0000                   (X_U5.43)    0.0000                       

(X_U5.44)    0.0000                   (X_U5.45)    0.0000                       

(X_U5.50)  -15.0000                   (X_U5.51)   99.3000                       

(X_U5.52)  -95.8520                   (X_U5.57)     .0342                       

(X_U5.58)-916.2E-06                   (X_U5.59)    9.1620                       

(X_U5.71)    9.1621                   (X_U5.72)    8.3796                       

(X_U5.73)    9.9532                   (X_U5.74)   13.6000                       

(X_U5.75)  -13.4000                   (X_U5.76)   15.0000                       

(X_U5.77)  -15.0000                   (X_U5.78)    9.1774                       

(X_U5.79)    9.1558                   (X_U5.81)    9.1667                       

(X_U5.86)    9.1687                   (X_U5.91)    0.0000                       

(X_U5.92)    0.0000                   (X_U5.93)    -.6086                       

(X_U5.94)    -.0029                   (X_U5.95)  -13.3000                       

(X_U5.96)    -.0029                   (X_U5.97)   13.3000                       

(X_U5.98)    -.0029                   (X_U5.99)    -.0029                       

(X_U6.10)    0.0000                   (X_U6.11)    6.7547                       

(X_U6.17)    0.0000                   (X_U6.18)    6.9479                       

(X_U6.19)    6.9476                   (X_U6.21)   -1.2500                       

(X_U6.22)   28.7500                   (X_U6.23)   28.7500                       

(X_U6.24)    1.6551                   (X_U6.25)    1.0000                       

(X_U6.26)    1.0000                   (X_U6.27)     .8337                       

(X_U6.28)     .6836                   (X_U6.29)    0.0000                       

(X_U6.31)    4.0000                   (X_U6.32)    3.0000                       

(X_U6.33)    2.0000                   (X_U6.34)    1.0000                       

(X_U6.38)    6.7547                   (X_U6.39)    6.7547                       

(X_U6.40)   15.0000                   (X_U6.41)    6.7546                       

(X_U6.42)   15.0000                   (X_U6.43)    0.0000                       

(X_U6.44)    0.0000                   (X_U6.45)    0.0000                       

(X_U6.50)  -15.0000                   (X_U6.51)   99.3000                       

(X_U6.52)  -95.8520                   (X_U6.57)     .0264                       

(X_U6.58)-705.0E-06                   (X_U6.59)    7.0497                       

(X_U6.71)    7.0497                   (X_U6.72)    6.2633                       

(X_U6.73)    7.8362                   (X_U6.74)   13.6000                       

(X_U6.75)  -13.4000                   (X_U6.76)   15.0000                       

(X_U6.77)  -15.0000                   (X_U6.78)    7.0525                       

(X_U6.79)    7.0303                   (X_U6.81)    7.0379                       

(X_U6.86)    6.9510                   (X_U6.91)    0.0000                       

(X_U6.92)    0.0000                   (X_U6.93)     .7053                       

(X_U6.94)    6.7547                   (X_U6.95)  -13.3000                       

(X_U6.96)    6.7547                   (X_U6.97)   13.3000                       

(X_U6.98)    6.7547                   (X_U6.99)    6.7547                       

(X_U7.10)    0.0000                   (X_U7.11)    5.3650                       

(X_U7.17)    0.0000                   (X_U7.18)-817.5E-06                       

(X_U7.19)   11.0370                   (X_U7.21)   -1.2500                       

(X_U7.22)   28.7500                   (X_U7.23)   28.7500                       

(X_U7.24)    1.6551                   (X_U7.25)    1.0000                       

(X_U7.26)    1.0000                   (X_U7.27)     .8337                       

(X_U7.28)     .6836                   (X_U7.29)    0.0000                       

(X_U7.31)    4.0000                   (X_U7.32)    3.0000                       

(X_U7.33)    2.0000                   (X_U7.34)    1.0000                       

(X_U7.38)    5.3650                   (X_U7.39)    5.3650                       

(X_U7.40)   15.0000                   (X_U7.41)    5.3649                       

(X_U7.42)   15.0000                   (X_U7.43)    0.0000                       

(X_U7.44)    0.0000                   (X_U7.45)    0.0000                       

(X_U7.50)  -15.0000                   (X_U7.51)   99.3000                       

(X_U7.52)  -95.8520                   (X_U7.57)  100.1900                       

(X_U7.58)   -2.6802                   (X_U7.59)   15.9190                       

(X_U7.71)   15.9170                   (X_U7.72)   15.1220                       

(X_U7.73)   14.2620                   (X_U7.74)   13.6000                       

(X_U7.75)  -13.4000                   (X_U7.76)   15.0000                       

(X_U7.77)  -15.0000                   (X_U7.78)   13.4840                       

(X_U7.79)   13.4720                   (X_U7.81)   13.4720                       

(X_U7.86)   13.3270                   (X_U7.91)    0.0000                       

(X_U7.92)    0.0000                   (X_U7.93)     .7186                       

(X_U7.94)    5.3650                   (X_U7.95)  -13.3000                       

(X_U7.96)    5.3650                   (X_U7.97)   13.3000                       

(X_U7.98)    5.3650                   (X_U7.99)    5.3650                       

(X_U8.10)    0.0000                   (X_U8.11)    4.3329                       

(X_U8.17)    0.0000                   (X_U8.18)    -.2503                       

(X_U8.19)    9.1637                   (X_U8.21)   -1.2500                       

(X_U8.22)   28.7500                   (X_U8.23)   28.7500                       

(X_U8.24)    1.6551                   (X_U8.25)    1.0000                       

(X_U8.26)    1.0000                   (X_U8.27)     .8337                       

(X_U8.28)     .6836                   (X_U8.29)    0.0000                       

(X_U8.31)    4.0000                   (X_U8.32)    3.0000                       

(X_U8.33)    2.0000                   (X_U8.34)    1.0000                       

(X_U8.38)    4.3329                   (X_U8.39)    4.3329                       

(X_U8.40)   15.0000                   (X_U8.41)    4.3329                       

(X_U8.42)   15.0000                   (X_U8.43)    0.0000                       

(X_U8.44)    0.0000                   (X_U8.45)    0.0000                       

(X_U8.50)  -15.0000                   (X_U8.51)   99.3000                       

(X_U8.52)  -95.8520                   (X_U8.57)  100.1800                       

(X_U8.58)   -2.6800                   (X_U8.59)   15.9190                       

(X_U8.71)   15.9170                   (X_U8.72)   15.1220                       

(X_U8.73)   14.2640                   (X_U8.74)   13.6000                       

(X_U8.75)  -13.4000                   (X_U8.76)   15.0000                       

(X_U8.77)  -15.0000                   (X_U8.78)   13.5630                       

(X_U8.79)   13.5630                   (X_U8.81)   13.5630                       

(X_U8.86)   13.5560                   (X_U8.91)    0.0000                       

(X_U8.92)    0.0000                   (X_U8.93)     .6397                       

(X_U8.94)    4.3329                   (X_U8.95)  -13.3000                       

(X_U8.96)    4.3329                   (X_U8.97)   13.3000                       

(X_U8.98)    4.3329                   (X_U8.99)    4.3329                       

(X_U5.120)    2.0000                  (X_U5.121)    1.0000                      

(X_U5.122)    1.0009                  (X_U5.710)    9.2915                      

(X_U5.720)    8.5018                  (X_U6.120)    2.0000                      

(X_U6.121)    1.0000                  (X_U6.122)    1.0009                      

(X_U6.710)    7.1753                  (X_U6.720)    6.3888                      

(X_U7.120)    2.0000                  (X_U7.121)    1.0000                      

(X_U7.122)    1.0009                  (X_U7.710)   15.9170                      

(X_U7.720)   15.2550                  (X_U8.120)    2.0000                      

(X_U8.121)    1.0000                  (X_U8.122)    1.0009                      

(X_U8.710)   15.9170                  (X_U8.720)   15.2550                  




    VOLTAGE SOURCE CURRENTS
    NAME         CURRENT

    V_V2         2.665E-02
    V_V1        -4.559E-02
    X_U7.VOFF   -2.710E-11
    X_U7.VSENS1   1.000E-03
    X_U7.VTEMP   3.014E-06
    X_U7.VCMX    5.365E-06
    X_U7.VPSX    0.000E+00
    X_U7.VCXX   -1.073E-11
    X_U7.VOOP    1.154E-02
    X_U7.VOON    2.847E-05
    X_U7.VOX     1.163E-02
    X_U7.VFX1    1.163E-02
    X_U7.VFX2   -7.286E-13
    X_U8.VOFF   -2.710E-11
    X_U8.VSENS1   1.000E-03
    X_U8.VTEMP   3.014E-06
    X_U8.VCMX    4.333E-06
    X_U8.VPSX    0.000E+00
    X_U8.VCXX   -8.666E-12
    X_U8.VOOP    5.733E-04
    X_U8.VOON    2.856E-05
    X_U8.VOX     5.504E-04
    X_U8.VFX1    5.504E-04
    X_U8.VFX2   -6.497E-13
    X_U5.VOFF   -2.710E-11
    X_U5.VSENS1   1.000E-03
    X_U5.VTEMP   3.014E-06
    X_U5.VCMX   -2.919E-09
    X_U5.VPSX    0.000E+00
    X_U5.VCXX    5.838E-15
    X_U5.VOOP    1.064E-02
    X_U5.VOON    1.081E-02
    X_U5.VOX    -1.654E-04
    X_U5.VFX1   -6.186E-13
    X_U5.VFX2    1.654E-04
    X_U6.VOFF   -2.710E-11
    X_U6.VSENS1   1.000E-03
    X_U6.VTEMP   3.014E-06
    X_U6.VCMX    6.755E-06
    X_U6.VPSX    0.000E+00
    X_U6.VCXX   -1.351E-11
    X_U6.VOOP    1.446E-02
    X_U6.VOON    7.575E-03
    X_U6.VOX     6.954E-03
    X_U6.VFX1    6.954E-03
    X_U6.VFX2   -7.153E-13

    TOTAL POWER DISSIPATION   1.08E+00  WATTS

 NODE   VOLTAGE     NODE   VOLTAGE     NODE   VOLTAGE     NODE   VOLTAGE


(  OUT)    6.9510  (  VCC)   15.0000  ( -VCC)  -15.0000  (N27745)   13.3270     

(N27789) 22.90E-06 (N27803)    9.1687 (N27903)   13.3270 (N28115)     .7308     

(N28363)    -.2566 (N28519)   -4.8639 (N30576)    1.4777 (N30840)    6.9507     

(N30995)    6.9507 (N34705)    -.2566 (N56018)   13.5560 (N56026)   11.0430     

(X_U5.10)    0.0000                   (X_U5.11)    -.0029                       

(X_U5.17)    0.0000                   (X_U5.18)    -.0029                       

(X_U5.19)    -.0031                   (X_U5.21)   -1.2500                       

(X_U5.22)   28.7500                   (X_U5.23)   28.7500                       

(X_U5.24)    1.6551                   (X_U5.25)    1.0000                       

(X_U5.26)    1.0000                   (X_U5.27)     .8337                       

(X_U5.28)     .6836                   (X_U5.29)    0.0000                       

(X_U5.31)    4.0000                   (X_U5.32)    3.0000                       

(X_U5.33)    2.0000                   (X_U5.34)    1.0000                       

(X_U5.38)    -.0029                   (X_U5.39)    -.0029                       

(X_U5.40)   15.0000                   (X_U5.41)    -.0029                       

(X_U5.42)   15.0000                   (X_U5.43)    0.0000                       

(X_U5.44)    0.0000                   (X_U5.45)    0.0000                       

(X_U5.50)  -15.0000                   (X_U5.51)   99.3000                       

(X_U5.52)  -95.8520                   (X_U5.57)     .0342                       

(X_U5.58)-916.2E-06                   (X_U5.59)    9.1620                       

(X_U5.71)    9.1621                   (X_U5.72)    8.3796                       

(X_U5.73)    9.9532                   (X_U5.74)   13.6000                       

(X_U5.75)  -13.4000                   (X_U5.76)   15.0000                       

(X_U5.77)  -15.0000                   (X_U5.78)    9.1774                       

(X_U5.79)    9.1558                   (X_U5.81)    9.1667                       

(X_U5.86)    9.1687                   (X_U5.91)    0.0000                       

(X_U5.92)    0.0000                   (X_U5.93)    -.6086                       

(X_U5.94)    -.0029                   (X_U5.95)  -13.3000                       

(X_U5.96)    -.0029                   (X_U5.97)   13.3000                       

(X_U5.98)    -.0029                   (X_U5.99)    -.0029                       

(X_U6.10)    0.0000                   (X_U6.11)    6.7547                       

(X_U6.17)    0.0000                   (X_U6.18)    6.9479                       

(X_U6.19)    6.9476                   (X_U6.21)   -1.2500                       

(X_U6.22)   28.7500                   (X_U6.23)   28.7500                       

(X_U6.24)    1.6551                   (X_U6.25)    1.0000                       

(X_U6.26)    1.0000                   (X_U6.27)     .8337                       

(X_U6.28)     .6836                   (X_U6.29)    0.0000                       

(X_U6.31)    4.0000                   (X_U6.32)    3.0000                       

(X_U6.33)    2.0000                   (X_U6.34)    1.0000                       

(X_U6.38)    6.7547                   (X_U6.39)    6.7547                       

(X_U6.40)   15.0000                   (X_U6.41)    6.7546                       

(X_U6.42)   15.0000                   (X_U6.43)    0.0000                       

(X_U6.44)    0.0000                   (X_U6.45)    0.0000                       

(X_U6.50)  -15.0000                   (X_U6.51)   99.3000                       

(X_U6.52)  -95.8520                   (X_U6.57)     .0264                       

(X_U6.58)-705.0E-06                   (X_U6.59)    7.0497                       

(X_U6.71)    7.0497                   (X_U6.72)    6.2633                       

(X_U6.73)    7.8362                   (X_U6.74)   13.6000                       

(X_U6.75)  -13.4000                   (X_U6.76)   15.0000                       

(X_U6.77)  -15.0000                   (X_U6.78)    7.0525                       

(X_U6.79)    7.0303                   (X_U6.81)    7.0379                       

(X_U6.86)    6.9510                   (X_U6.91)    0.0000                       

(X_U6.92)    0.0000                   (X_U6.93)     .7053                       

(X_U6.94)    6.7547                   (X_U6.95)  -13.3000                       

(X_U6.96)    6.7547                   (X_U6.97)   13.3000                       

(X_U6.98)    6.7547                   (X_U6.99)    6.7547                       

(X_U7.10)    0.0000                   (X_U7.11)    5.3650                       

(X_U7.17)    0.0000                   (X_U7.18)-817.5E-06                       

(X_U7.19)   11.0370                   (X_U7.21)   -1.2500                       

(X_U7.22)   28.7500                   (X_U7.23)   28.7500                       

(X_U7.24)    1.6551                   (X_U7.25)    1.0000                       

(X_U7.26)    1.0000                   (X_U7.27)     .8337                       

(X_U7.28)     .6836                   (X_U7.29)    0.0000                       

(X_U7.31)    4.0000                   (X_U7.32)    3.0000                       

(X_U7.33)    2.0000                   (X_U7.34)    1.0000                       

(X_U7.38)    5.3650                   (X_U7.39)    5.3650                       

(X_U7.40)   15.0000                   (X_U7.41)    5.3649                       

(X_U7.42)   15.0000                   (X_U7.43)    0.0000                       

(X_U7.44)    0.0000                   (X_U7.45)    0.0000                       

(X_U7.50)  -15.0000                   (X_U7.51)   99.3000                       

(X_U7.52)  -95.8520                   (X_U7.57)  100.1900                       

(X_U7.58)   -2.6802                   (X_U7.59)   15.9190                       

(X_U7.71)   15.9170                   (X_U7.72)   15.1220                       

(X_U7.73)   14.2620                   (X_U7.74)   13.6000                       

(X_U7.75)  -13.4000                   (X_U7.76)   15.0000                       

(X_U7.77)  -15.0000                   (X_U7.78)   13.4840                       

(X_U7.79)   13.4720                   (X_U7.81)   13.4720                       

(X_U7.86)   13.3270                   (X_U7.91)    0.0000                       

(X_U7.92)    0.0000                   (X_U7.93)     .7186                       

(X_U7.94)    5.3650                   (X_U7.95)  -13.3000                       

(X_U7.96)    5.3650                   (X_U7.97)   13.3000                       

(X_U7.98)    5.3650                   (X_U7.99)    5.3650                       

(X_U8.10)    0.0000                   (X_U8.11)    4.3293                       

(X_U8.17)    0.0000                   (X_U8.18)    -.2577                       

(X_U8.19)    9.1637                   (X_U8.21)   -1.2500                       

(X_U8.22)   28.7500                   (X_U8.23)   28.7500                       

(X_U8.24)    1.6551                   (X_U8.25)    1.0000                       

(X_U8.26)    1.0000                   (X_U8.27)     .8337                       

(X_U8.28)     .6836                   (X_U8.29)    0.0000                       

(X_U8.31)    4.0000                   (X_U8.32)    3.0000                       

(X_U8.33)    2.0000                   (X_U8.34)    1.0000                       

(X_U8.38)    4.3293                   (X_U8.39)    4.3293                       

(X_U8.40)   15.0000                   (X_U8.41)    4.3292                       

(X_U8.42)   15.0000                   (X_U8.43)    0.0000                       

(X_U8.44)    0.0000                   (X_U8.45)    0.0000                       

(X_U8.50)  -15.0000                   (X_U8.51)   99.3000                       

(X_U8.52)  -95.8520                   (X_U8.57)  100.1800                       

(X_U8.58)   -2.6800                   (X_U8.59)   15.9190                       

(X_U8.71)   15.9170                   (X_U8.72)   15.1220                       

(X_U8.73)   14.2640                   (X_U8.74)   13.6000                       

(X_U8.75)  -13.4000                   (X_U8.76)   15.0000                       

(X_U8.77)  -15.0000                   (X_U8.78)   13.5630                       

(X_U8.79)   13.5630                   (X_U8.81)   13.5630                       

(X_U8.86)   13.5560                   (X_U8.91)    0.0000                       

(X_U8.92)    0.0000                   (X_U8.93)     .6397                       

(X_U8.94)    4.3293                   (X_U8.95)  -13.3000                       

(X_U8.96)    4.3293                   (X_U8.97)   13.3000                       

(X_U8.98)    4.3293                   (X_U8.99)    4.3293                       

(X_U5.120)    2.0000                  (X_U5.121)    1.0000                      

(X_U5.122)    1.0009                  (X_U5.710)    9.2915                      

(X_U5.720)    8.5018                  (X_U6.120)    2.0000                      

(X_U6.121)    1.0000                  (X_U6.122)    1.0009                      

(X_U6.710)    7.1753                  (X_U6.720)    6.3888                      

(X_U7.120)    2.0000                  (X_U7.121)    1.0000                      

(X_U7.122)    1.0009                  (X_U7.710)   15.9170                      

(X_U7.720)   15.2550                  (X_U8.120)    2.0000                      

(X_U8.121)    1.0000                  (X_U8.122)    1.0009                      

(X_U8.710)   15.9170                  (X_U8.720)   15.2550                  




    VOLTAGE SOURCE CURRENTS
    NAME         CURRENT

    V_V2         2.665E-02
    V_V1        -4.559E-02
    X_U7.VOFF   -2.710E-11
    X_U7.VSENS1   1.000E-03
    X_U7.VTEMP   3.014E-06
    X_U7.VCMX    5.365E-06
    X_U7.VPSX    0.000E+00
    X_U7.VCXX   -1.073E-11
    X_U7.VOOP    1.154E-02
    X_U7.VOON    2.847E-05
    X_U7.VOX     1.163E-02
    X_U7.VFX1    1.163E-02
    X_U7.VFX2   -7.286E-13
    X_U8.VOFF   -2.710E-11
    X_U8.VSENS1   1.000E-03
    X_U8.VTEMP   3.014E-06
    X_U8.VCMX    4.329E-06
    X_U8.VPSX    0.000E+00
    X_U8.VCXX   -8.659E-12
    X_U8.VOOP    5.733E-04
    X_U8.VOON    2.856E-05
    X_U8.VOX     5.504E-04
    X_U8.VFX1    5.504E-04
    X_U8.VFX2   -6.497E-13
    X_U5.VOFF   -2.710E-11
    X_U5.VSENS1   1.000E-03
    X_U5.VTEMP   3.014E-06
    X_U5.VCMX   -2.919E-09
    X_U5.VPSX    0.000E+00
    X_U5.VCXX    5.838E-15
    X_U5.VOOP    1.064E-02
    X_U5.VOON    1.081E-02
    X_U5.VOX    -1.654E-04
    X_U5.VFX1   -6.186E-13
    X_U5.VFX2    1.654E-04
    X_U6.VOFF   -2.710E-11
    X_U6.VSENS1   1.000E-03
    X_U6.VTEMP   3.014E-06
    X_U6.VCMX    6.755E-06
    X_U6.VPSX    0.000E+00
    X_U6.VCXX   -1.351E-11
    X_U6.VOOP    1.446E-02
    X_U6.VOON    7.575E-03
    X_U6.VOX     6.954E-03
    X_U6.VFX1    6.954E-03
    X_U6.VFX2   -7.153E-13

    TOTAL POWER DISSIPATION   1.08E+00  WATTS

 NODE   VOLTAGE     NODE   VOLTAGE     NODE   VOLTAGE     NODE   VOLTAGE


(  OUT)    6.9510  (  VCC)   15.0000  ( -VCC)  -15.0000  (N27745)   13.3270     

(N27789) 22.90E-06 (N27803)    9.1687 (N27903)   13.3270 (N28115)     .7308     

(N28363)    -.2491 (N28519)   -4.8588 (N30576)    1.4777 (N30840)    6.9507     

(N30995)    6.9507 (N34705)    -.2491 (N56018)   13.5560 (N56026)   11.0430     

(X_U5.10)    0.0000                   (X_U5.11)    -.0029                       

(X_U5.17)    0.0000                   (X_U5.18)    -.0029                       

(X_U5.19)    -.0031                   (X_U5.21)   -1.2500                       

(X_U5.22)   28.7500                   (X_U5.23)   28.7500                       

(X_U5.24)    1.6551                   (X_U5.25)    1.0000                       

(X_U5.26)    1.0000                   (X_U5.27)     .8337                       

(X_U5.28)     .6836                   (X_U5.29)    0.0000                       

(X_U5.31)    4.0000                   (X_U5.32)    3.0000                       

(X_U5.33)    2.0000                   (X_U5.34)    1.0000                       

(X_U5.38)    -.0029                   (X_U5.39)    -.0029                       

(X_U5.40)   15.0000                   (X_U5.41)    -.0029                       

(X_U5.42)   15.0000                   (X_U5.43)    0.0000                       

(X_U5.44)    0.0000                   (X_U5.45)    0.0000                       

(X_U5.50)  -15.0000                   (X_U5.51)   99.3000                       

(X_U5.52)  -95.8520                   (X_U5.57)     .0342                       

(X_U5.58)-916.2E-06                   (X_U5.59)    9.1620                       

(X_U5.71)    9.1621                   (X_U5.72)    8.3796                       

(X_U5.73)    9.9532                   (X_U5.74)   13.6000                       

(X_U5.75)  -13.4000                   (X_U5.76)   15.0000                       

(X_U5.77)  -15.0000                   (X_U5.78)    9.1774                       

(X_U5.79)    9.1558                   (X_U5.81)    9.1667                       

(X_U5.86)    9.1687                   (X_U5.91)    0.0000                       

(X_U5.92)    0.0000                   (X_U5.93)    -.6086                       

(X_U5.94)    -.0029                   (X_U5.95)  -13.3000                       

(X_U5.96)    -.0029                   (X_U5.97)   13.3000                       

(X_U5.98)    -.0029                   (X_U5.99)    -.0029                       

(X_U6.10)    0.0000                   (X_U6.11)    6.7547                       

(X_U6.17)    0.0000                   (X_U6.18)    6.9479                       

(X_U6.19)    6.9476                   (X_U6.21)   -1.2500                       

(X_U6.22)   28.7500                   (X_U6.23)   28.7500                       

(X_U6.24)    1.6551                   (X_U6.25)    1.0000                       

(X_U6.26)    1.0000                   (X_U6.27)     .8337                       

(X_U6.28)     .6836                   (X_U6.29)    0.0000                       

(X_U6.31)    4.0000                   (X_U6.32)    3.0000                       

(X_U6.33)    2.0000                   (X_U6.34)    1.0000                       

(X_U6.38)    6.7547                   (X_U6.39)    6.7547                       

(X_U6.40)   15.0000                   (X_U6.41)    6.7546                       

(X_U6.42)   15.0000                   (X_U6.43)    0.0000                       

(X_U6.44)    0.0000                   (X_U6.45)    0.0000                       

(X_U6.50)  -15.0000                   (X_U6.51)   99.3000                       

(X_U6.52)  -95.8520                   (X_U6.57)     .0264                       

(X_U6.58)-705.0E-06                   (X_U6.59)    7.0496                       

(X_U6.71)    7.0496                   (X_U6.72)    6.2632                       

(X_U6.73)    7.8361                   (X_U6.74)   13.6000                       

(X_U6.75)  -13.4000                   (X_U6.76)   15.0000                       

(X_U6.77)  -15.0000                   (X_U6.78)    7.0524                       

(X_U6.79)    7.0302                   (X_U6.81)    7.0378                       

(X_U6.86)    6.9510                   (X_U6.91)    0.0000                       

(X_U6.92)    0.0000                   (X_U6.93)     .7052                       

(X_U6.94)    6.7547                   (X_U6.95)  -13.3000                       

(X_U6.96)    6.7547                   (X_U6.97)   13.3000                       

(X_U6.98)    6.7547                   (X_U6.99)    6.7547                       

(X_U7.10)    0.0000                   (X_U7.11)    5.3650                       

(X_U7.17)    0.0000                   (X_U7.18)-817.5E-06                       

(X_U7.19)   11.0370                   (X_U7.21)   -1.2500                       

(X_U7.22)   28.7500                   (X_U7.23)   28.7500                       

(X_U7.24)    1.6551                   (X_U7.25)    1.0000                       

(X_U7.26)    1.0000                   (X_U7.27)     .8337                       

(X_U7.28)     .6836                   (X_U7.29)    0.0000                       

(X_U7.31)    4.0000                   (X_U7.32)    3.0000                       

(X_U7.33)    2.0000                   (X_U7.34)    1.0000                       

(X_U7.38)    5.3650                   (X_U7.39)    5.3650                       

(X_U7.40)   15.0000                   (X_U7.41)    5.3649                       

(X_U7.42)   15.0000                   (X_U7.43)    0.0000                       

(X_U7.44)    0.0000                   (X_U7.45)    0.0000                       

(X_U7.50)  -15.0000                   (X_U7.51)   99.3000                       

(X_U7.52)  -95.8520                   (X_U7.57)  100.1900                       

(X_U7.58)   -2.6802                   (X_U7.59)   15.9190                       

(X_U7.71)   15.9170                   (X_U7.72)   15.1220                       

(X_U7.73)   14.2620                   (X_U7.74)   13.6000                       

(X_U7.75)  -13.4000                   (X_U7.76)   15.0000                       

(X_U7.77)  -15.0000                   (X_U7.78)   13.4840                       

(X_U7.79)   13.4720                   (X_U7.81)   13.4720                       

(X_U7.86)   13.3270                   (X_U7.91)    0.0000                       

(X_U7.92)    0.0000                   (X_U7.93)     .7186                       

(X_U7.94)    5.3650                   (X_U7.95)  -13.3000                       

(X_U7.96)    5.3650                   (X_U7.97)   13.3000                       

(X_U7.98)    5.3650                   (X_U7.99)    5.3650                       

(X_U8.10)    0.0000                   (X_U8.11)    4.3329                       

(X_U8.17)    0.0000                   (X_U8.18)    -.2503                       

(X_U8.19)    9.1637                   (X_U8.21)   -1.2500                       

(X_U8.22)   28.7500                   (X_U8.23)   28.7500                       

(X_U8.24)    1.6551                   (X_U8.25)    1.0000                       

(X_U8.26)    1.0000                   (X_U8.27)     .8337                       

(X_U8.28)     .6836                   (X_U8.29)    0.0000                       

(X_U8.31)    4.0000                   (X_U8.32)    3.0000                       

(X_U8.33)    2.0000                   (X_U8.34)    1.0000                       

(X_U8.38)    4.3329                   (X_U8.39)    4.3329                       

(X_U8.40)   15.0000                   (X_U8.41)    4.3329                       

(X_U8.42)   15.0000                   (X_U8.43)    0.0000                       

(X_U8.44)    0.0000                   (X_U8.45)    0.0000                       

(X_U8.50)  -15.0000                   (X_U8.51)   99.3000                       

(X_U8.52)  -95.8520                   (X_U8.57)  100.1800                       

(X_U8.58)   -2.6800                   (X_U8.59)   15.9190                       

(X_U8.71)   15.9170                   (X_U8.72)   15.1220                       

(X_U8.73)   14.2640                   (X_U8.74)   13.6000                       

(X_U8.75)  -13.4000                   (X_U8.76)   15.0000                       

(X_U8.77)  -15.0000                   (X_U8.78)   13.5630                       

(X_U8.79)   13.5630                   (X_U8.81)   13.5630                       

(X_U8.86)   13.5560                   (X_U8.91)    0.0000                       

(X_U8.92)    0.0000                   (X_U8.93)     .6397                       

(X_U8.94)    4.3329                   (X_U8.95)  -13.3000                       

(X_U8.96)    4.3329                   (X_U8.97)   13.3000                       

(X_U8.98)    4.3329                   (X_U8.99)    4.3329                       

(X_U5.120)    2.0000                  (X_U5.121)    1.0000                      

(X_U5.122)    1.0009                  (X_U5.710)    9.2915                      

(X_U5.720)    8.5018                  (X_U6.120)    2.0000                      

(X_U6.121)    1.0000                  (X_U6.122)    1.0009                      

(X_U6.710)    7.1752                  (X_U6.720)    6.3887                      

(X_U7.120)    2.0000                  (X_U7.121)    1.0000                      

(X_U7.122)    1.0009                  (X_U7.710)   15.9170                      

(X_U7.720)   15.2550                  (X_U8.120)    2.0000                      

(X_U8.121)    1.0000                  (X_U8.122)    1.0009                      

(X_U8.710)   15.9170                  (X_U8.720)   15.2550                  




    VOLTAGE SOURCE CURRENTS
    NAME         CURRENT

    V_V2         2.665E-02
    V_V1        -4.559E-02
    X_U7.VOFF   -2.710E-11
    X_U7.VSENS1   1.000E-03
    X_U7.VTEMP   3.014E-06
    X_U7.VCMX    5.365E-06
    X_U7.VPSX    0.000E+00
    X_U7.VCXX   -1.073E-11
    X_U7.VOOP    1.154E-02
    X_U7.VOON    2.847E-05
    X_U7.VOX     1.163E-02
    X_U7.VFX1    1.163E-02
    X_U7.VFX2   -7.286E-13
    X_U8.VOFF   -2.710E-11
    X_U8.VSENS1   1.000E-03
    X_U8.VTEMP   3.014E-06
    X_U8.VCMX    4.333E-06
    X_U8.VPSX    0.000E+00
    X_U8.VCXX   -8.666E-12
    X_U8.VOOP    5.733E-04
    X_U8.VOON    2.856E-05
    X_U8.VOX     5.504E-04
    X_U8.VFX1    5.504E-04
    X_U8.VFX2   -6.497E-13
    X_U5.VOFF   -2.710E-11
    X_U5.VSENS1   1.000E-03
    X_U5.VTEMP   3.014E-06
    X_U5.VCMX   -2.919E-09
    X_U5.VPSX    0.000E+00
    X_U5.VCXX    5.838E-15
    X_U5.VOOP    1.064E-02
    X_U5.VOON    1.081E-02
    X_U5.VOX    -1.654E-04
    X_U5.VFX1   -6.186E-13
    X_U5.VFX2    1.654E-04
    X_U6.VOFF   -2.710E-11
    X_U6.VSENS1   1.000E-03
    X_U6.VTEMP   3.014E-06
    X_U6.VCMX    6.755E-06
    X_U6.VPSX    0.000E+00
    X_U6.VCXX   -1.351E-11
    X_U6.VOOP    1.446E-02
    X_U6.VOON    7.578E-03
    X_U6.VOX     6.947E-03
    X_U6.VFX1    6.947E-03
    X_U6.VFX2   -7.152E-13

    TOTAL POWER DISSIPATION   1.08E+00  WATTS

 NODE   VOLTAGE     NODE   VOLTAGE     NODE   VOLTAGE     NODE   VOLTAGE


(  OUT)    6.9510  (  VCC)   15.0000  ( -VCC)  -15.0000  (N27745)   13.3270     

(N27789) 22.90E-06 (N27803)    9.1687 (N27903)   13.3270 (N28115)     .7308     

(N28363)    -.2491 (N28519)   -4.8588 (N30576)    1.4777 (N30840)    6.9507     

(N30995)    6.9507 (N34705)    -.2491 (N56018)   13.5560 (N56026)   11.0420     

(X_U5.10)    0.0000                   (X_U5.11)    -.0029                       

(X_U5.17)    0.0000                   (X_U5.18)    -.0029                       

(X_U5.19)    -.0031                   (X_U5.21)   -1.2500                       

(X_U5.22)   28.7500                   (X_U5.23)   28.7500                       

(X_U5.24)    1.6551                   (X_U5.25)    1.0000                       

(X_U5.26)    1.0000                   (X_U5.27)     .8337                       

(X_U5.28)     .6836                   (X_U5.29)    0.0000                       

(X_U5.31)    4.0000                   (X_U5.32)    3.0000                       

(X_U5.33)    2.0000                   (X_U5.34)    1.0000                       

(X_U5.38)    -.0029                   (X_U5.39)    -.0029                       

(X_U5.40)   15.0000                   (X_U5.41)    -.0029                       

(X_U5.42)   15.0000                   (X_U5.43)    0.0000                       

(X_U5.44)    0.0000                   (X_U5.45)    0.0000                       

(X_U5.50)  -15.0000                   (X_U5.51)   99.3000                       

(X_U5.52)  -95.8520                   (X_U5.57)     .0342                       

(X_U5.58)-916.2E-06                   (X_U5.59)    9.1620                       

(X_U5.71)    9.1621                   (X_U5.72)    8.3796                       

(X_U5.73)    9.9532                   (X_U5.74)   13.6000                       

(X_U5.75)  -13.4000                   (X_U5.76)   15.0000                       

(X_U5.77)  -15.0000                   (X_U5.78)    9.1774                       

(X_U5.79)    9.1558                   (X_U5.81)    9.1667                       

(X_U5.86)    9.1687                   (X_U5.91)    0.0000                       

(X_U5.92)    0.0000                   (X_U5.93)    -.6085                       

(X_U5.94)    -.0029                   (X_U5.95)  -13.3000                       

(X_U5.96)    -.0029                   (X_U5.97)   13.3000                       

(X_U5.98)    -.0029                   (X_U5.99)    -.0029                       

(X_U6.10)    0.0000                   (X_U6.11)    6.7547                       

(X_U6.17)    0.0000                   (X_U6.18)    6.9479                       

(X_U6.19)    6.9476                   (X_U6.21)   -1.2500                       

(X_U6.22)   28.7500                   (X_U6.23)   28.7500                       

(X_U6.24)    1.6551                   (X_U6.25)    1.0000                       

(X_U6.26)    1.0000                   (X_U6.27)     .8337                       

(X_U6.28)     .6836                   (X_U6.29)    0.0000                       

(X_U6.31)    4.0000                   (X_U6.32)    3.0000                       

(X_U6.33)    2.0000                   (X_U6.34)    1.0000                       

(X_U6.38)    6.7547                   (X_U6.39)    6.7547                       

(X_U6.40)   15.0000                   (X_U6.41)    6.7546                       

(X_U6.42)   15.0000                   (X_U6.43)    0.0000                       

(X_U6.44)    0.0000                   (X_U6.45)    0.0000                       

(X_U6.50)  -15.0000                   (X_U6.51)   99.3000                       

(X_U6.52)  -95.8520                   (X_U6.57)     .0264                       

(X_U6.58)-705.0E-06                   (X_U6.59)    7.0497                       

(X_U6.71)    7.0497                   (X_U6.72)    6.2633                       

(X_U6.73)    7.8362                   (X_U6.74)   13.6000                       

(X_U6.75)  -13.4000                   (X_U6.76)   15.0000                       

(X_U6.77)  -15.0000                   (X_U6.78)    7.0525                       

(X_U6.79)    7.0303                   (X_U6.81)    7.0379                       

(X_U6.86)    6.9510                   (X_U6.91)    0.0000                       

(X_U6.92)    0.0000                   (X_U6.93)     .7053                       

(X_U6.94)    6.7547                   (X_U6.95)  -13.3000                       

(X_U6.96)    6.7547                   (X_U6.97)   13.3000                       

(X_U6.98)    6.7547                   (X_U6.99)    6.7547                       

(X_U7.10)    0.0000                   (X_U7.11)    5.3645                       

(X_U7.17)    0.0000                   (X_U7.18)-817.7E-06                       

(X_U7.19)   11.0360                   (X_U7.21)   -1.2500                       

(X_U7.22)   28.7500                   (X_U7.23)   28.7500                       

(X_U7.24)    1.6551                   (X_U7.25)    1.0000                       

(X_U7.26)    1.0000                   (X_U7.27)     .8337                       

(X_U7.28)     .6836                   (X_U7.29)    0.0000                       

(X_U7.31)    4.0000                   (X_U7.32)    3.0000                       

(X_U7.33)    2.0000                   (X_U7.34)    1.0000                       

(X_U7.38)    5.3645                   (X_U7.39)    5.3645                       

(X_U7.40)   15.0000                   (X_U7.41)    5.3644                       

(X_U7.42)   15.0000                   (X_U7.43)    0.0000                       

(X_U7.44)    0.0000                   (X_U7.45)    0.0000                       

(X_U7.50)  -15.0000                   (X_U7.51)   99.3000                       

(X_U7.52)  -95.8520                   (X_U7.57)  100.1900                       

(X_U7.58)   -2.6802                   (X_U7.59)   15.9190                       

(X_U7.71)   15.9170                   (X_U7.72)   15.1220                       

(X_U7.73)   14.2620                   (X_U7.74)   13.6000                       

(X_U7.75)  -13.4000                   (X_U7.76)   15.0000                       

(X_U7.77)  -15.0000                   (X_U7.78)   13.4840                       

(X_U7.79)   13.4720                   (X_U7.81)   13.4720                       

(X_U7.86)   13.3270                   (X_U7.91)    0.0000                       

(X_U7.92)    0.0000                   (X_U7.93)     .7186                       

(X_U7.94)    5.3645                   (X_U7.95)  -13.3000                       

(X_U7.96)    5.3645                   (X_U7.97)   13.3000                       

(X_U7.98)    5.3645                   (X_U7.99)    5.3645                       

(X_U8.10)    0.0000                   (X_U8.11)    4.3329                       

(X_U8.17)    0.0000                   (X_U8.18)    -.2503                       

(X_U8.19)    9.1637                   (X_U8.21)   -1.2500                       

(X_U8.22)   28.7500                   (X_U8.23)   28.7500                       

(X_U8.24)    1.6551                   (X_U8.25)    1.0000                       

(X_U8.26)    1.0000                   (X_U8.27)     .8337                       

(X_U8.28)     .6836                   (X_U8.29)    0.0000                       

(X_U8.31)    4.0000                   (X_U8.32)    3.0000                       

(X_U8.33)    2.0000                   (X_U8.34)    1.0000                       

(X_U8.38)    4.3329                   (X_U8.39)    4.3329                       

(X_U8.40)   15.0000                   (X_U8.41)    4.3329                       

(X_U8.42)   15.0000                   (X_U8.43)    0.0000                       

(X_U8.44)    0.0000                   (X_U8.45)    0.0000                       

(X_U8.50)  -15.0000                   (X_U8.51)   99.3000                       

(X_U8.52)  -95.8520                   (X_U8.57)  100.1800                       

(X_U8.58)   -2.6800                   (X_U8.59)   15.9190                       

(X_U8.71)   15.9170                   (X_U8.72)   15.1220                       

(X_U8.73)   14.2640                   (X_U8.74)   13.6000                       

(X_U8.75)  -13.4000                   (X_U8.76)   15.0000                       

(X_U8.77)  -15.0000                   (X_U8.78)   13.5630                       

(X_U8.79)   13.5630                   (X_U8.81)   13.5630                       

(X_U8.86)   13.5560                   (X_U8.91)    0.0000                       

(X_U8.92)    0.0000                   (X_U8.93)     .6397                       

(X_U8.94)    4.3329                   (X_U8.95)  -13.3000                       

(X_U8.96)    4.3329                   (X_U8.97)   13.3000                       

(X_U8.98)    4.3329                   (X_U8.99)    4.3329                       

(X_U5.120)    2.0000                  (X_U5.121)    1.0000                      

(X_U5.122)    1.0009                  (X_U5.710)    9.2915                      

(X_U5.720)    8.5018                  (X_U6.120)    2.0000                      

(X_U6.121)    1.0000                  (X_U6.122)    1.0009                      

(X_U6.710)    7.1753                  (X_U6.720)    6.3888                      

(X_U7.120)    2.0000                  (X_U7.121)    1.0000                      

(X_U7.122)    1.0009                  (X_U7.710)   15.9170                      

(X_U7.720)   15.2550                  (X_U8.120)    2.0000                      

(X_U8.121)    1.0000                  (X_U8.122)    1.0009                      

(X_U8.710)   15.9170                  (X_U8.720)   15.2550                  




    VOLTAGE SOURCE CURRENTS
    NAME         CURRENT

    V_V2         2.665E-02
    V_V1        -4.559E-02
    X_U7.VOFF   -2.710E-11
    X_U7.VSENS1   1.000E-03
    X_U7.VTEMP   3.014E-06
    X_U7.VCMX    5.364E-06
    X_U7.VPSX    0.000E+00
    X_U7.VCXX   -1.073E-11
    X_U7.VOOP    1.154E-02
    X_U7.VOON    2.847E-05
    X_U7.VOX     1.163E-02
    X_U7.VFX1    1.163E-02
    X_U7.VFX2   -7.286E-13
    X_U8.VOFF   -2.710E-11
    X_U8.VSENS1   1.000E-03
    X_U8.VTEMP   3.014E-06
    X_U8.VCMX    4.333E-06
    X_U8.VPSX    0.000E+00
    X_U8.VCXX   -8.666E-12
    X_U8.VOOP    5.733E-04
    X_U8.VOON    2.856E-05
    X_U8.VOX     5.504E-04
    X_U8.VFX1    5.504E-04
    X_U8.VFX2   -6.497E-13
    X_U5.VOFF   -2.710E-11
    X_U5.VSENS1   1.000E-03
    X_U5.VTEMP   3.014E-06
    X_U5.VCMX   -2.919E-09
    X_U5.VPSX    0.000E+00
    X_U5.VCXX    5.838E-15
    X_U5.VOOP    1.064E-02
    X_U5.VOON    1.081E-02
    X_U5.VOX    -1.653E-04
    X_U5.VFX1   -6.185E-13
    X_U5.VFX2    1.653E-04
    X_U6.VOFF   -2.710E-11
    X_U6.VSENS1   1.000E-03
    X_U6.VTEMP   3.014E-06
    X_U6.VCMX    6.755E-06
    X_U6.VPSX    0.000E+00
    X_U6.VCXX   -1.351E-11
    X_U6.VOOP    1.446E-02
    X_U6.VOON    7.575E-03
    X_U6.VOX     6.954E-03
    X_U6.VFX1    6.954E-03
    X_U6.VFX2   -7.153E-13

    TOTAL POWER DISSIPATION   1.08E+00  WATTS

 NODE   VOLTAGE     NODE   VOLTAGE     NODE   VOLTAGE     NODE   VOLTAGE


(  OUT)    6.9510  (  VCC)   15.0000  ( -VCC)  -15.0000  (N27745)   13.3270     

(N27789) 22.87E-06 (N27803)    9.1690 (N27903)   13.3270 (N28115)     .7307     

(N28363)    -.2491 (N28519)   -4.8588 (N30576)    1.4777 (N30840)    6.9507     

(N30995)    6.9507 (N34705)    -.2491 (N56018)   13.5560 (N56026)   11.0430     

(X_U5.10)    0.0000                   (X_U5.11)    -.0029                       

(X_U5.17)    0.0000                   (X_U5.18)    -.0029                       

(X_U5.19)    -.0031                   (X_U5.21)   -1.2500                       

(X_U5.22)   28.7500                   (X_U5.23)   28.7500                       

(X_U5.24)    1.6551                   (X_U5.25)    1.0000                       

(X_U5.26)    1.0000                   (X_U5.27)     .8337                       

(X_U5.28)     .6836                   (X_U5.29)    0.0000                       

(X_U5.31)    4.0000                   (X_U5.32)    3.0000                       

(X_U5.33)    2.0000                   (X_U5.34)    1.0000                       

(X_U5.38)    -.0029                   (X_U5.39)    -.0029                       

[...]

(X_U8.24)    1.6551                   (X_U8.25)    1.0000                       

(X_U8.26)    1.0000                   (X_U8.27)     .8337                       

(X_U8.28)     .6836                   (X_U8.29)    0.0000                       

(X_U8.31)    4.0000                   (X_U8.32)    3.0000                       

(X_U8.33)    2.0000                   (X_U8.34)    1.0000                       

(X_U8.38)    4.3329                   (X_U8.39)    4.3329                       

(X_U8.40)   15.0000                   (X_U8.41)    4.3329                       

(X_U8.42)   15.0000                   (X_U8.43)    0.0000                       

(X_U8.44)    0.0000                   (X_U8.45)    0.0000                       

(X_U8.50)  -15.0000                   (X_U8.51)   99.3000                       

(X_U8.52)  -95.8520                   (X_U8.57)  100.1800                       

(X_U8.58)   -2.6800                   (X_U8.59)   15.9190                       

(X_U8.71)   15.9170                   (X_U8.72)   15.1220                       

(X_U8.73)   14.2640                   (X_U8.74)   13.6000                       

(X_U8.75)  -13.4000                   (X_U8.76)   15.0000                       

(X_U8.77)  -15.0000                   (X_U8.78)   13.5630                       

(X_U8.79)   13.5630                   (X_U8.81)   13.5630                       

(X_U8.86)   13.5560                   (X_U8.91)    0.0000                       

(X_U8.92)    0.0000                   (X_U8.93)     .6397                       

(X_U8.94)    4.3329                   (X_U8.95)  -13.3000                       

(X_U8.96)    4.3329                   (X_U8.97)   13.3000                       

(X_U8.98)    4.3329                   (X_U8.99)    4.3329                       

(X_U5.120)    2.0000                  (X_U5.121)    1.0000                      

(X_U5.122)    1.0009                  (X_U5.710)    9.2915                      

(X_U5.720)    8.5018                  (X_U6.120)    2.0000                      

(X_U6.121)    1.0000                  (X_U6.122)    1.0009                      

(X_U6.710)    7.1760                  (X_U6.720)    6.3895                      

(X_U7.120)    2.0000                  (X_U7.121)    1.0000                      

(X_U7.122)    1.0009                  (X_U7.710)   15.9170                      

(X_U7.720)   15.2550                  (X_U8.120)    2.0000                      

(X_U8.121)    1.0000                  (X_U8.122)    1.0009                      

(X_U8.710)   15.9170                  (X_U8.720)   15.2550                  




    VOLTAGE SOURCE CURRENTS
    NAME         CURRENT

    V_V2         2.665E-02
    V_V1        -4.559E-02
    X_U7.VOFF   -2.710E-11
    X_U7.VSENS1   1.000E-03
    X_U7.VTEMP   3.014E-06
    X_U7.VCMX    5.365E-06
    X_U7.VPSX    0.000E+00
    X_U7.VCXX   -1.073E-11
    X_U7.VOOP    1.154E-02
    X_U7.VOON    2.847E-05
    X_U7.VOX     1.163E-02
    X_U7.VFX1    1.163E-02
    X_U7.VFX2   -7.286E-13
    X_U8.VOFF   -2.710E-11
    X_U8.VSENS1   1.000E-03
    X_U8.VTEMP   3.014E-06
    X_U8.VCMX    4.333E-06
    X_U8.VPSX    0.000E+00
    X_U8.VCXX   -8.666E-12
    X_U8.VOOP    5.732E-04
    X_U8.VOON    2.856E-05
    X_U8.VOX     5.504E-04
    X_U8.VFX1    5.504E-04
    X_U8.VFX2   -6.497E-13
    X_U5.VOFF   -2.710E-11
    X_U5.VSENS1   1.000E-03
    X_U5.VTEMP   3.014E-06
    X_U5.VCMX   -2.919E-09
    X_U5.VPSX    0.000E+00
    X_U5.VCXX    5.838E-15
    X_U5.VOOP    1.064E-02
    X_U5.VOON    1.081E-02
    X_U5.VOX    -1.654E-04
    X_U5.VFX1   -6.186E-13
    X_U5.VFX2    1.654E-04
    X_U6.VOFF   -2.710E-11
    X_U6.VSENS1   1.000E-03
    X_U6.VTEMP   3.014E-06
    X_U6.VCMX    6.755E-06
    X_U6.VPSX    0.000E+00
    X_U6.VCXX   -1.351E-11
    X_U6.VOOP    1.446E-02
    X_U6.VOON    7.575E-03
    X_U6.VOX     6.955E-03
    X_U6.VFX1    6.955E-03
    X_U6.VFX2   -7.153E-13

    TOTAL POWER DISSIPATION   1.08E+00  WATTS



Mean Deviation =   -2.7668
Sigma          =   13.556

 RUN                    MAX DEVIATION FROM NOMINAL

R_R8 R_R8 R             13.836  (1.02 sigma)  higher  at T =  826.2700E-06
                        (  -2.0097E+03% change per 1% change in Model Parameter)

C_C1 C_C1 C             13.836  (1.02 sigma)  lower  at T =  351.5400E-06
                        (  -1.9904E+03% change per 1% change in Model Parameter)

R_R3 R_R3 R             13.836  (1.02 sigma)  lower  at T =  351.9200E-06
                        (  -1.9904E+03% change per 1% change in Model Parameter)

R_R4 R_R4 R             13.836  (1.02 sigma)  lower  at T =  351.5100E-06
                        (  -1.9904E+03% change per 1% change in Model Parameter)

R_R1 R_R1 R             13.836  (1.02 sigma)  lower  at T =  353.2800E-06
                        (  -1.9904E+03% change per 1% change in Model Parameter)

R_R9 R_R9 R             13.836  (1.02 sigma)  higher  at T =  826.4500E-06
                        (  -2.0096E+03% change per 1% change in Model Parameter)

R_R6 R_R6 R             13.836  (1.02 sigma)  higher  at T =  826.5400E-06
                        (  -2.0096E+03% change per 1% change in Model Parameter)

R_R5 R_R5 R             13.836  (1.02 sigma)  lower  at T =   83.3210E-06
                        (  -1.9905E+03% change per 1% change in Model Parameter)

R_R2 R_R2 R             13.836  (1.02 sigma)  higher  at T =  474.8200E-06
                        (  -2.0097E+03% change per 1% change in Model Parameter)

R_R7 R_R7 R             13.833  (1.02 sigma)  lower  at T =  351.5000E-06
                        (  -1.9899E+03% change per 1% change in Model Parameter)


**** 05/15/25 23:12:27 **** PSpice 24.1.0 (23 January 2025) *** ID# 0 ********

 ** Profile: "SCHEMATIC1-monte"  [ d:\facultate\an 2\semestru 2\cad\proiectul meu_pwm\proiectcad-pspicefiles\schematic1\monte.sim ] 


 ****     INITIAL TRANSIENT SOLUTION       TEMPERATURE =   27.000 DEG C

                      WORST CASE ALL DEVICES

******************************************************************************



 NODE   VOLTAGE     NODE   VOLTAGE     NODE   VOLTAGE     NODE   VOLTAGE


(  OUT)    7.1603  (  VCC)   15.0000  ( -VCC)  -15.0000  (N27745)   13.3170     

(N27789) 24.08E-06 (N27803)    9.1569 (N27903)   13.3170 (N28115)     .7338     

(N28363)     .3869 (N28519)   -4.2617 (N30576)    1.5815 (N30840)    7.1600     

(N30995)    7.1600 (N34705)     .3869 (N56018)   13.5550 (N56026)   10.9290     

(X_U5.10)    0.0000                   (X_U5.11)    -.0029                       

(X_U5.17)    0.0000                   (X_U5.18)    -.0029                       

(X_U5.19)    -.0031                   (X_U5.21)   -1.2500                       

(X_U5.22)   28.7500                   (X_U5.23)   28.7500                       

(X_U5.24)    1.6551                   (X_U5.25)    1.0000                       

(X_U5.26)    1.0000                   (X_U5.27)     .8337                       

(X_U5.28)     .6836                   (X_U5.29)    0.0000                       

(X_U5.31)    4.0000                   (X_U5.32)    3.0000                       

(X_U5.33)    2.0000                   (X_U5.34)    1.0000                       

(X_U5.38)    -.0029                   (X_U5.39)    -.0029                       

(X_U5.40)   15.0000                   (X_U5.41)    -.0029                       

(X_U5.42)   15.0000                   (X_U5.43)    0.0000                       

(X_U5.44)    0.0000                   (X_U5.45)    0.0000                       

(X_U5.50)  -15.0000                   (X_U5.51)   99.3000                       

(X_U5.52)  -95.8520                   (X_U5.57)     .0342                       

(X_U5.58)-915.0E-06                   (X_U5.59)    9.1502                       

(X_U5.71)    9.1503                   (X_U5.72)    8.3678                       

(X_U5.73)    9.9414                   (X_U5.74)   13.6000                       

(X_U5.75)  -13.4000                   (X_U5.76)   15.0000                       

(X_U5.77)  -15.0000                   (X_U5.78)    9.1656                       

(X_U5.79)    9.1440                   (X_U5.81)    9.1548                       

(X_U5.86)    9.1569                   (X_U5.91)    0.0000                       

(X_U5.92)    0.0000                   (X_U5.93)    -.6085                       

(X_U5.94)    -.0029                   (X_U5.95)  -13.3000                       

(X_U5.96)    -.0029                   (X_U5.97)   13.3000                       

(X_U5.98)    -.0029                   (X_U5.99)    -.0029                       

(X_U6.10)    0.0000                   (X_U6.11)    6.9582                       

(X_U6.17)    0.0000                   (X_U6.18)    7.1572                       

(X_U6.19)    7.1569                   (X_U6.21)   -1.2500                       

(X_U6.22)   28.7500                   (X_U6.23)   28.7500                       

(X_U6.24)    1.6551                   (X_U6.25)    1.0000                       

(X_U6.26)    1.0000                   (X_U6.27)     .8337                       

(X_U6.28)     .6836                   (X_U6.29)    0.0000                       

(X_U6.31)    4.0000                   (X_U6.32)    3.0000                       

(X_U6.33)    2.0000                   (X_U6.34)    1.0000                       

(X_U6.38)    6.9582                   (X_U6.39)    6.9582                       

(X_U6.40)   15.0000                   (X_U6.41)    6.9581                       

(X_U6.42)   15.0000                   (X_U6.43)    0.0000                       

(X_U6.44)    0.0000                   (X_U6.45)    0.0000                       

(X_U6.50)  -15.0000                   (X_U6.51)   99.3000                       

(X_U6.52)  -95.8520                   (X_U6.57)     .0271                       

(X_U6.58)-725.7E-06                   (X_U6.59)    7.2571                       

(X_U6.71)    7.2571                   (X_U6.72)    6.4707                       

(X_U6.73)    8.0437                   (X_U6.74)   13.6000                       

(X_U6.75)  -13.4000                   (X_U6.76)   15.0000                       

(X_U6.77)  -15.0000                   (X_U6.78)    7.2601                       

(X_U6.79)    7.2379                   (X_U6.81)    7.2456                       

(X_U6.86)    7.1603                   (X_U6.91)    0.0000                       

(X_U6.92)    0.0000                   (X_U6.93)     .7048                       

(X_U6.94)    6.9582                   (X_U6.95)  -13.3000                       

(X_U6.96)    6.9582                   (X_U6.97)   13.3000                       

(X_U6.98)    6.9582                   (X_U6.99)    6.9582                       

(X_U7.10)    0.0000                   (X_U7.11)    5.3099                       

(X_U7.17)    0.0000                   (X_U7.18)-839.5E-06                       

(X_U7.19)   10.9240                   (X_U7.21)   -1.2500                       

(X_U7.22)   28.7500                   (X_U7.23)   28.7500                       

(X_U7.24)    1.6551                   (X_U7.25)    1.0000                       

(X_U7.26)    1.0000                   (X_U7.27)     .8337                       

(X_U7.28)     .6836                   (X_U7.29)    0.0000                       

(X_U7.31)    4.0000                   (X_U7.32)    3.0000                       

(X_U7.33)    2.0000                   (X_U7.34)    1.0000                       

(X_U7.38)    5.3099                   (X_U7.39)    5.3099                       

(X_U7.40)   15.0000                   (X_U7.41)    5.3099                       

(X_U7.42)   15.0000                   (X_U7.43)    0.0000                       

(X_U7.44)    0.0000                   (X_U7.45)    0.0000                       

(X_U7.50)  -15.0000                   (X_U7.51)   99.3000                       

(X_U7.52)  -95.8520                   (X_U7.57)  100.1900                       

(X_U7.58)   -2.6802                   (X_U7.59)   15.9190                       

(X_U7.71)   15.9170                   (X_U7.72)   15.1220                       

(X_U7.73)   14.2610                   (X_U7.74)   13.6000                       

(X_U7.75)  -13.4000                   (X_U7.76)   15.0000                       

(X_U7.77)  -15.0000                   (X_U7.78)   13.4820                       

(X_U7.79)   13.4700                   (X_U7.81)   13.4700                       

(X_U7.86)   13.3170                   (X_U7.91)    0.0000                       

(X_U7.92)    0.0000                   (X_U7.93)     .7198                       

(X_U7.94)    5.3099                   (X_U7.95)  -13.3000                       

(X_U7.96)    5.3099                   (X_U7.97)   13.3000                       

(X_U7.98)    5.3099                   (X_U7.99)    5.3099                       

(X_U8.10)    0.0000                   (X_U8.11)    4.6364                       

(X_U8.17)    0.0000                   (X_U8.18)     .3857                       

(X_U8.19)    9.1520                   (X_U8.21)   -1.2500                       

(X_U8.22)   28.7500                   (X_U8.23)   28.7500                       

(X_U8.24)    1.6551                   (X_U8.25)    1.0000                       

(X_U8.26)    1.0000                   (X_U8.27)     .8337                       

(X_U8.28)     .6836                   (X_U8.29)    0.0000                       

(X_U8.31)    4.0000                   (X_U8.32)    3.0000                       

(X_U8.33)    2.0000                   (X_U8.34)    1.0000                       

(X_U8.38)    4.6364                   (X_U8.39)    4.6364                       

(X_U8.40)   15.0000                   (X_U8.41)    4.6363                       

(X_U8.42)   15.0000                   (X_U8.43)    0.0000                       

(X_U8.44)    0.0000                   (X_U8.45)    0.0000                       

(X_U8.50)  -15.0000                   (X_U8.51)   99.3000                       

(X_U8.52)  -95.8520                   (X_U8.57)  100.1800                       

(X_U8.58)   -2.6799                   (X_U8.59)   15.9190                       

(X_U8.71)   15.9170                   (X_U8.72)   15.1220                       

(X_U8.73)   14.2640                   (X_U8.74)   13.6000                       

(X_U8.75)  -13.4000                   (X_U8.76)   15.0000                       

(X_U8.77)  -15.0000                   (X_U8.78)   13.5630                       

(X_U8.79)   13.5620                   (X_U8.81)   13.5620                       

(X_U8.86)   13.5550                   (X_U8.91)    0.0000                       

(X_U8.92)    0.0000                   (X_U8.93)     .6401                       

(X_U8.94)    4.6364                   (X_U8.95)  -13.3000                       

(X_U8.96)    4.6364                   (X_U8.97)   13.3000                       

(X_U8.98)    4.6364                   (X_U8.99)    4.6364                       

(X_U5.120)    2.0000                  (X_U5.121)    1.0000                      

(X_U5.122)    1.0009                  (X_U5.710)    9.2797                      

(X_U5.720)    8.4900                  (X_U6.120)    2.0000                      

(X_U6.121)    1.0000                  (X_U6.122)    1.0009                      

(X_U6.710)    7.3827                  (X_U6.720)    6.5961                      

(X_U7.120)    2.0000                  (X_U7.121)    1.0000                      

(X_U7.122)    1.0009                  (X_U7.710)   15.9170                      

(X_U7.720)   15.2550                  (X_U8.120)    2.0000                      

(X_U8.121)    1.0000                  (X_U8.122)    1.0009                      

(X_U8.710)   15.9170                  (X_U8.720)   15.2550                  




    VOLTAGE SOURCE CURRENTS
    NAME         CURRENT

    V_V2         2.665E-02
    V_V1        -4.607E-02
    X_U7.VOFF   -2.710E-11
    X_U7.VSENS1   1.000E-03
    X_U7.VTEMP   3.014E-06
    X_U7.VCMX    5.310E-06
    X_U7.VPSX    0.000E+00
    X_U7.VCXX   -1.062E-11
    X_U7.VOOP    1.212E-02
    X_U7.VOON    2.847E-05
    X_U7.VOX     1.222E-02
    X_U7.VFX1    1.222E-02
    X_U7.VFX2   -7.298E-13
    X_U8.VOFF   -2.710E-11
    X_U8.VSENS1   1.000E-03
    X_U8.VTEMP   3.014E-06
    X_U8.VCMX    4.636E-06
    X_U8.VPSX    0.000E+00
    X_U8.VCXX   -9.273E-12
    X_U8.VOOP    5.837E-04
    X_U8.VOON    2.856E-05
    X_U8.VOX     5.610E-04
    X_U8.VFX1    5.610E-04
    X_U8.VFX2   -6.501E-13
    X_U5.VOFF   -2.710E-11
    X_U5.VSENS1   1.000E-03
    X_U5.VTEMP   3.014E-06
    X_U5.VCMX   -2.919E-09
    X_U5.VPSX    0.000E+00
    X_U5.VCXX    5.837E-15
    X_U5.VOOP    1.064E-02
    X_U5.VOON    1.081E-02
    X_U5.VOX    -1.648E-04
    X_U5.VFX1   -6.185E-13
    X_U5.VFX2    1.648E-04
    X_U6.VOFF   -2.710E-11
    X_U6.VSENS1   1.000E-03
    X_U6.VTEMP   3.014E-06
    X_U6.VCMX    6.958E-06
    X_U6.VPSX    0.000E+00
    X_U6.VCXX   -1.392E-11
    X_U6.VOOP    1.438E-02
    X_U6.VOON    7.630E-03
    X_U6.VOX     6.822E-03
    X_U6.VFX1    6.822E-03
    X_U6.VFX2   -7.148E-13

    TOTAL POWER DISSIPATION   1.09E+00  WATTS


**** 05/15/25 23:12:27 **** PSpice 24.1.0 (23 January 2025) *** ID# 0 ********

 ** Profile: "SCHEMATIC1-monte"  [ d:\facultate\an 2\semestru 2\cad\proiectul meu_pwm\proiectcad-pspicefiles\schematic1\monte.sim ] 


 ****     UPDATED MODEL PARAMETERS         TEMPERATURE =   27.000 DEG C

                      WORST CASE ALL DEVICES

******************************************************************************



Device       MODEL        PARAMETER    NEW VALUE    
C_C1         C_C1         C                .9           (Decreased)  
R_R3         R_R3         R                .95          (Decreased)  
R_R5         R_R5         R                .95          (Decreased)  
R_R9         R_R9         R               1.05          (Increased)  
R_R2         R_R2         R               1.05          (Increased)  
R_R4         R_R4         R                .95          (Decreased)  
R_R7         R_R7         R                .95          (Decreased)  
R_R6         R_R6         R               1.05          (Increased)  
R_R1         R_R1         R                .95          (Decreased)  
R_R8         R_R8         R               1.05          (Increased)  
    

**** 05/15/25 23:12:27 **** PSpice 24.1.0 (23 January 2025) *** ID# 0 ********

 ** Profile: "SCHEMATIC1-monte"  [ d:\facultate\an 2\semestru 2\cad\proiectul meu_pwm\proiectcad-pspicefiles\schematic1\monte.sim ] 


 ****     SORTED DEVIATIONS OF V(OUT)      TEMPERATURE =   27.000 DEG C

                      WORST CASE SUMMARY

******************************************************************************





Mean Deviation =   14.045
Sigma          =    0     

 RUN                    MAX DEVIATION FROM NOMINAL

WORST CASE ALL DEVICES
                        14.045  higher  at T =  829.1700E-06
                        (-104   % of Nominal)



          JOB CONCLUDED

**** 05/15/25 23:12:27 **** PSpice 24.1.0 (23 January 2025) *** ID# 0 ********

 ** Profile: "SCHEMATIC1-monte"  [ d:\facultate\an 2\semestru 2\cad\proiectul meu_pwm\proiectcad-pspicefiles\schematic1\monte.sim ] 


 ****     JOB STATISTICS SUMMARY


******************************************************************************



  Total job time (using Solver 1)   =       37.05
